# File generated by Flopy version 3.3.3 on 02/18/2021 at 08:28:35.
BEGIN options
  DIGITS  10
  PRINT_INPUT
END options

BEGIN continuous  FILEOUT  ex-gwf-maw-p01.maw.obs.csv
  head  head  1
  Q1  maw  1  1
  Q2  maw  1  2
END continuous  FILEOUT  ex-gwf-maw-p01.maw.obs.csv

