# File generated by Flopy version 3.3.3 on 02/18/2021 at 08:28:35.
BEGIN griddata
  strt  LAYERED
    CONSTANT       3.05000000
    CONSTANT       9.14000000
END griddata

