# File generated by Flopy version 3.3.3 on 02/18/2021 at 08:28:33.
BEGIN options
  BUDGET  FILEOUT  child.cbc
  HEAD  FILEOUT  child.hds
END options

BEGIN period  1
  SAVE  HEAD  ALL
  SAVE  BUDGET  ALL
END period  1

