# File generated by Flopy version 3.3.2 on 10/22/2020 at 09:30:33.
BEGIN options
  SAVE_FLOWS
END options

BEGIN packages
  DIS6  child.dis  dis
  NPF6  child.npf  npf
  IC6  child.ic  ic
  RIV6  child.riv  riv
  RCH6  child.rcha  rch
  OC6  child.oc  oc
END packages

