# File generated by Flopy version 3.3.3 on 02/18/2021 at 08:28:33.
BEGIN options
  READASARRAYS
END options

BEGIN period  1
  recharge
    CONSTANT  1.10980000E-09
END period  1

