# File generated by Flopy version 3.3.3 on 02/18/2021 at 08:28:06.
BEGIN griddata
  strt
    CONSTANT    1050.00000000
END griddata

