# File generated by Flopy version 3.3.3 on 02/18/2021 at 08:28:07.
BEGIN options
  DIGITS  10
  PRINT_INPUT
END options

BEGIN continuous  FILEOUT  ex-gwf-drn-p01.surfrate.obs.csv
  surfrate  uzf-gwd-to-mvr  surfrate
  netinfil  net-infiltration  surfrate
END continuous  FILEOUT  ex-gwf-drn-p01.surfrate.obs.csv

