# File generated by Flopy version 3.3.3 on 02/18/2021 at 08:31:45.
BEGIN options
  PRINT_OPTION  summary
END options

BEGIN linear
  INNER_MAXIMUM  300
END linear

