# File generated by Flopy version 3.3.2 on 10/22/2020 at 09:33:28.
BEGIN options
  TIME_UNITS  seconds
END options

BEGIN dimensions
  NPER  1
END dimensions

BEGIN perioddata
       0.50000000  500       1.00000000
END perioddata

