# File generated by Flopy version 3.3.2 on 10/22/2020 at 09:33:28.
BEGIN options
END options

BEGIN packages
  DIS6  trans.dis  dis
  MST6  trans.mst  mst
  IC6  trans.ic  ic
  ADV6  trans.adv  adv
  DSP6  trans.dsp  dsp
  SSM6  trans.ssm  ssm
  OC6  trans.oc  oc
END packages

