# File generated by Flopy version 3.3.2 on 10/22/2020 at 09:33:28.
BEGIN options
  XT3D_OFF
END options

BEGIN griddata
  diffc
    CONSTANT       0.57024000
END griddata

