# File generated by Flopy version 3.3.3 on 02/18/2021 at 08:31:38.
BEGIN options
END options

BEGIN sources
  GHB-1  AUX  CONCENTRATION
  WEL-1  AUX  CONCENTRATION
END sources

