# File generated by Flopy version 3.3.3 on 02/18/2021 at 08:28:00.
BEGIN options
  TIME_UNITS  days
END options

BEGIN dimensions
  NPER  3
END dimensions

BEGIN perioddata
       0.00000000  1       1.00000000
   21915.00000000  60       1.00000000
   21915.00000000  60       1.00000000
END perioddata

