# File generated by Flopy version 3.3.2 on 10/22/2020 at 09:33:55.
BEGIN options
END options

BEGIN timing
  TDIS6  trans.tdis
END timing

BEGIN models
  gwt6  trans.nam  trans
END models

BEGIN exchanges
END exchanges

BEGIN solutiongroup  1
  ims6  trans.ims  trans
END solutiongroup  1

