# File generated by Flopy version 3.3.2 on 10/22/2020 at 09:33:55.
BEGIN options
  ZERO_ORDER_DECAY
END options

BEGIN griddata
  porosity
    CONSTANT       0.37000000
  decay
    CONSTANT      -0.00200000
END griddata

