# File generated by Flopy version 3.3.3 on 02/18/2021 at 08:32:11.
BEGIN options
END options

BEGIN linear
  LINEAR_ACCELERATION  bicgstab
END linear

