# File generated by Flopy version 3.3.2 on 10/22/2020 at 09:33:55.
BEGIN options
END options

BEGIN sources
  WEL-1  AUX  CONCENTRATION
END sources

