# File generated by Flopy version 3.3.3 on 02/18/2021 at 08:32:11.
BEGIN options
  DIGITS  10
  PRINT_INPUT
END options

BEGIN continuous  FILEOUT  trans.obs.csv
  myobs  CONCENTRATION  1 1 52
END continuous  FILEOUT  trans.obs.csv

