# File generated by Flopy version 3.3.3 on 02/18/2021 at 08:32:01.
BEGIN options
  auxiliary  CONCENTRATION
  PRINT_INPUT
  PRINT_FLOWS
END options

BEGIN dimensions
  MAXBOUND  1
END dimensions

BEGIN period  1
  1 16 16   86400.00000000     100.00000000
END period  1

BEGIN period  2
  1 16 16  -86400.00000000       0.00000000
END period  2

