# File generated by Flopy version 3.3.3 on 02/18/2021 at 08:32:01.
BEGIN options
END options

BEGIN griddata
  iconvert
    CONSTANT  0
  ss
    CONSTANT       0.00000000
  sy
    CONSTANT       0.00000000
END griddata

