# File generated by Flopy version 3.3.2 on 10/22/2020 at 09:33:46.
BEGIN options
END options

BEGIN continuous  FILEOUT  gwt_p06-mf6.obs.csv
  bckgrnd_cn  concentration  1 16 16
END continuous  FILEOUT  gwt_p06-mf6.obs.csv

