# File generated by Flopy version 3.3.3 on 02/18/2021 at 08:32:01.
BEGIN options
END options

BEGIN continuous  FILEOUT  gwt_p06-mf6.obs.csv
  bckgrnd_cn  concentration  1 16 16
END continuous  FILEOUT  gwt_p06-mf6.obs.csv

