# File generated by Flopy version 3.3.2 on 10/22/2020 at 09:34:00.
BEGIN options
  BOUNDNAMES
  PRINT_STAGE
  PRINT_FLOWS
  STAGE  FILEOUT  flow.lak.bin
  BUDGET  FILEOUT  flow.lak.bud
  MOVER
  TIME_CONVERSION   86400.00000000
END options

BEGIN dimensions
  NLAKES  2
  NOUTLETS  1
END dimensions

BEGIN packagedata
  1      44.00000000  67  lake1
  2      35.20000000  32  lake2
END packagedata

BEGIN connectiondata
  1  1  1 5 19  horizontal       1.00000000       0.00000000       0.00000000     201.85850000     405.66500000
  1  2  2 6 19  vertical       1.00000000       0.00000000       0.00000000       0.00000000       0.00000000
  1  3  1 5 20  horizontal       1.00000000       0.00000000       0.00000000     201.85850000     405.66500000
  1  4  1 6 21  horizontal       1.00000000       0.00000000       0.00000000     202.83250000     403.71700000
  1  5  2 6 20  vertical       1.00000000       0.00000000       0.00000000       0.00000000       0.00000000
  1  6  1 6 18  horizontal       1.00000000       0.00000000       0.00000000     201.85850000     405.66500000
  1  7  2 7 18  vertical       1.00000000       0.00000000       0.00000000       0.00000000       0.00000000
  1  8  2 7 19  vertical       1.00000000       0.00000000       0.00000000       0.00000000       0.00000000
  1  9  1 7 21  horizontal       1.00000000       0.00000000       0.00000000     202.83250000     403.71700000
  1  10  2 7 20  vertical       1.00000000       0.00000000       0.00000000       0.00000000       0.00000000
  1  11  1 7 16  horizontal       1.00000000       0.00000000       0.00000000     201.85850000     405.66500000
  1  12  2 8 16  vertical       1.00000000       0.00000000       0.00000000       0.00000000       0.00000000
  1  13  1 7 17  horizontal       1.00000000       0.00000000       0.00000000     201.85850000     405.66500000
  1  14  2 8 17  vertical       1.00000000       0.00000000       0.00000000       0.00000000       0.00000000
  1  15  2 8 18  vertical       1.00000000       0.00000000       0.00000000       0.00000000       0.00000000
  1  16  2 8 19  vertical       1.00000000       0.00000000       0.00000000       0.00000000       0.00000000
  1  17  1 8 21  horizontal       1.00000000       0.00000000       0.00000000     202.83250000     403.71700000
  1  18  2 8 20  vertical       1.00000000       0.00000000       0.00000000       0.00000000       0.00000000
  1  19  2 9 16  vertical       1.00000000       0.00000000       0.00000000       0.00000000       0.00000000
  1  20  2 9 17  vertical       1.00000000       0.00000000       0.00000000       0.00000000       0.00000000
  1  21  2 9 18  vertical       1.00000000       0.00000000       0.00000000       0.00000000       0.00000000
  1  22  2 9 19  vertical       1.00000000       0.00000000       0.00000000       0.00000000       0.00000000
  1  23  2 9 20  vertical       1.00000000       0.00000000       0.00000000       0.00000000       0.00000000
  1  24  1 8 21  horizontal       1.00000000       0.00000000       0.00000000     201.85850000     405.66500000
  1  25  1 9 22  horizontal       1.00000000       0.00000000       0.00000000     202.83250000     403.71700000
  1  26  2 9 21  vertical       1.00000000       0.00000000       0.00000000       0.00000000       0.00000000
  1  27  1 11 16  horizontal       1.00000000       0.00000000       0.00000000     201.85850000     405.66500000
  1  28  2 10 16  vertical       1.00000000       0.00000000       0.00000000       0.00000000       0.00000000
  1  29  2 10 17  vertical       1.00000000       0.00000000       0.00000000       0.00000000       0.00000000
  1  30  2 10 18  vertical       1.00000000       0.00000000       0.00000000       0.00000000       0.00000000
  1  31  2 10 19  vertical       1.00000000       0.00000000       0.00000000       0.00000000       0.00000000
  1  32  2 10 20  vertical       1.00000000       0.00000000       0.00000000       0.00000000       0.00000000
  1  33  1 10 22  horizontal       1.00000000       0.00000000       0.00000000     202.83250000     403.71700000
  1  34  2 10 21  vertical       1.00000000       0.00000000       0.00000000       0.00000000       0.00000000
  1  35  2 11 17  vertical       1.00000000       0.00000000       0.00000000       0.00000000       0.00000000
  1  36  2 11 18  vertical       1.00000000       0.00000000       0.00000000       0.00000000       0.00000000
  1  37  2 11 19  vertical       1.00000000       0.00000000       0.00000000       0.00000000       0.00000000
  1  38  2 11 20  vertical       1.00000000       0.00000000       0.00000000       0.00000000       0.00000000
  1  39  1 11 22  horizontal       1.00000000       0.00000000       0.00000000     202.83250000     403.71700000
  1  40  2 11 21  vertical       1.00000000       0.00000000       0.00000000       0.00000000       0.00000000
  1  41  2 12 17  vertical       1.00000000       0.00000000       0.00000000       0.00000000       0.00000000
  1  42  2 12 18  vertical       1.00000000       0.00000000       0.00000000       0.00000000       0.00000000
  1  43  2 12 19  vertical       1.00000000       0.00000000       0.00000000       0.00000000       0.00000000
  1  44  2 12 20  vertical       1.00000000       0.00000000       0.00000000       0.00000000       0.00000000
  1  45  1 12 22  horizontal       1.00000000       0.00000000       0.00000000     202.83250000     403.71700000
  1  46  1 13 21  horizontal       1.00000000       0.00000000       0.00000000     201.85850000     405.66500000
  1  47  2 12 21  vertical       1.00000000       0.00000000       0.00000000       0.00000000       0.00000000
  1  48  2 13 17  vertical       1.00000000       0.00000000       0.00000000       0.00000000       0.00000000
  1  49  2 13 18  vertical       1.00000000       0.00000000       0.00000000       0.00000000       0.00000000
  1  50  2 13 19  vertical       1.00000000       0.00000000       0.00000000       0.00000000       0.00000000
  1  51  1 13 21  horizontal       1.00000000       0.00000000       0.00000000     202.83250000     403.71700000
  1  52  2 13 20  vertical       1.00000000       0.00000000       0.00000000       0.00000000       0.00000000
  1  53  2 14 17  vertical       1.00000000       0.00000000       0.00000000       0.00000000       0.00000000
  1  54  2 14 18  vertical       1.00000000       0.00000000       0.00000000       0.00000000       0.00000000
  1  55  2 14 19  vertical       1.00000000       0.00000000       0.00000000       0.00000000       0.00000000
  1  56  1 14 21  horizontal       1.00000000       0.00000000       0.00000000     202.83250000     403.71700000
  1  57  1 15 20  horizontal       1.00000000       0.00000000       0.00000000     201.85850000     405.66500000
  1  58  2 14 20  vertical       1.00000000       0.00000000       0.00000000       0.00000000       0.00000000
  1  59  1 16 17  horizontal       1.00000000       0.00000000       0.00000000     201.85850000     405.66500000
  1  60  2 15 17  vertical       1.00000000       0.00000000       0.00000000       0.00000000       0.00000000
  1  61  2 15 18  vertical       1.00000000       0.00000000       0.00000000       0.00000000       0.00000000
  1  62  1 15 20  horizontal       1.00000000       0.00000000       0.00000000     202.83250000     403.71700000
  1  63  1 16 19  horizontal       1.00000000       0.00000000       0.00000000     201.85850000     405.66500000
  1  64  2 15 19  vertical       1.00000000       0.00000000       0.00000000       0.00000000       0.00000000
  1  65  1 16 19  horizontal       1.00000000       0.00000000       0.00000000     202.83250000     403.71700000
  1  66  1 17 18  horizontal       1.00000000       0.00000000       0.00000000     201.85850000     405.66500000
  1  67  2 16 18  vertical       1.00000000       0.00000000       0.00000000       0.00000000       0.00000000
  2  1  1 18 2  horizontal       1.00000000       0.00000000       0.00000000     201.85850000     405.66500000
  2  2  1 19 3  horizontal       1.00000000       0.00000000       0.00000000     202.83250000     403.71700000
  2  3  2 19 2  vertical       1.00000000       0.00000000       0.00000000       0.00000000       0.00000000
  2  4  1 20 3  horizontal       1.00000000       0.00000000       0.00000000     202.83250000     403.71700000
  2  5  2 20 2  vertical       1.00000000       0.00000000       0.00000000       0.00000000       0.00000000
  2  6  1 21 3  horizontal       1.00000000       0.00000000       0.00000000     202.83250000     403.71700000
  2  7  2 21 2  vertical       1.00000000       0.00000000       0.00000000       0.00000000       0.00000000
  2  8  2 22 2  vertical       1.00000000       0.00000000       0.00000000       0.00000000       0.00000000
  2  9  1 21 3  horizontal       1.00000000       0.00000000       0.00000000     201.85850000     405.66500000
  2  10  1 22 4  horizontal       1.00000000       0.00000000       0.00000000     202.83250000     403.71700000
  2  11  2 22 3  vertical       1.00000000       0.00000000       0.00000000       0.00000000       0.00000000
  2  12  2 23 1  vertical       1.00000000       0.00000000       0.00000000       0.00000000       0.00000000
  2  13  2 23 2  vertical       1.00000000       0.00000000       0.00000000       0.00000000       0.00000000
  2  14  2 23 3  vertical       1.00000000       0.00000000       0.00000000       0.00000000       0.00000000
  2  15  1 22 4  horizontal       1.00000000       0.00000000       0.00000000     201.85850000     405.66500000
  2  16  1 23 5  horizontal       1.00000000       0.00000000       0.00000000     202.83250000     403.71700000
  2  17  2 23 4  vertical       1.00000000       0.00000000       0.00000000       0.00000000       0.00000000
  2  18  2 24 1  vertical       1.00000000       0.00000000       0.00000000       0.00000000       0.00000000
  2  19  2 24 2  vertical       1.00000000       0.00000000       0.00000000       0.00000000       0.00000000
  2  20  1 25 3  horizontal       1.00000000       0.00000000       0.00000000     201.85850000     405.66500000
  2  21  2 24 3  vertical       1.00000000       0.00000000       0.00000000       0.00000000       0.00000000
  2  22  1 24 5  horizontal       1.00000000       0.00000000       0.00000000     202.83250000     403.71700000
  2  23  1 25 4  horizontal       1.00000000       0.00000000       0.00000000     201.85850000     405.66500000
  2  24  2 24 4  vertical       1.00000000       0.00000000       0.00000000       0.00000000       0.00000000
  2  25  2 25 1  vertical       1.00000000       0.00000000       0.00000000       0.00000000       0.00000000
  2  26  1 25 3  horizontal       1.00000000       0.00000000       0.00000000     202.83250000     403.71700000
  2  27  2 25 2  vertical       1.00000000       0.00000000       0.00000000       0.00000000       0.00000000
  2  28  1 27 1  horizontal       1.00000000       0.00000000       0.00000000     201.85850000     405.66500000
  2  29  2 26 1  vertical       1.00000000       0.00000000       0.00000000       0.00000000       0.00000000
  2  30  1 26 3  horizontal       1.00000000       0.00000000       0.00000000     202.83250000     403.71700000
  2  31  1 27 2  horizontal       1.00000000       0.00000000       0.00000000     201.85850000     405.66500000
  2  32  2 26 2  vertical       1.00000000       0.00000000       0.00000000       0.00000000       0.00000000
END connectiondata

BEGIN outlets
  1  1  0  MANNING      44.50000000       5.00000000       0.03000000       0.00218750
END outlets

