# File generated by Flopy version 3.3.3 on 02/18/2021 at 08:32:17.
BEGIN options
  READASARRAYS
END options

BEGIN period  1
  recharge
    CONSTANT       0.00479000
END period  1

