# File generated by Flopy version 3.3.2 on 10/22/2020 at 09:34:00.
BEGIN options
END options

BEGIN timing
  TDIS6  flow.tdis
END timing

BEGIN models
  gwf6  flow.nam  flow
END models

BEGIN exchanges
END exchanges

BEGIN solutiongroup  1
  ims6  flow.ims  flow
END solutiongroup  1

