# File generated by Flopy version 3.3.2 on 10/22/2020 at 09:33:23.
BEGIN options
  SAVE_FLOWS
END options

BEGIN packages
  DISV6  ex-gwf-u1disv-x.disv  disv
  NPF6  ex-gwf-u1disv-x.npf  npf
  IC6  ex-gwf-u1disv-x.ic  ic
  CHD6  ex-gwf-u1disv-x.left.chd  chd-left
  CHD6  ex-gwf-u1disv-x.right.chd  chd-right
  OC6  ex-gwf-u1disv-x.oc  oc
END packages

