# File generated by Flopy version 3.3.2 on 10/22/2020 at 09:33:23.
BEGIN options
  BUDGET  FILEOUT  ex-gwf-u1disv-x.cbc
  HEAD  FILEOUT  ex-gwf-u1disv-x.hds
END options

BEGIN period  1
  SAVE  HEAD  ALL
  SAVE  BUDGET  ALL
END period  1

