# File generated by Flopy version 3.3.3 on 02/18/2021 at 08:31:32.
BEGIN options
  BUDGET  FILEOUT  ex-gwf-u1disv-x.cbc
  HEAD  FILEOUT  ex-gwf-u1disv-x.hds
END options

BEGIN period  1
  SAVE  HEAD  ALL
  SAVE  BUDGET  ALL
END period  1

