# File generated by Flopy version 3.3.2 on 10/22/2020 at 09:33:32.
BEGIN options
  FIRST_ORDER_DECAY
END options

BEGIN griddata
  porosity
    CONSTANT       0.10000000
  decay
    CONSTANT       0.01000000
END griddata

