# File generated by Flopy version 3.3.2 on 10/22/2020 at 09:33:37.
BEGIN options
  XT3D
  SAVE_SPECIFIC_DISCHARGE
  SAVE_SATURATION
END options

BEGIN griddata
  icelltype
    CONSTANT  0
  k
    CONSTANT       0.01250000
END griddata

