# File generated by Flopy version 3.3.2 on 10/22/2020 at 09:33:37.
BEGIN options
  SAVE_FLOWS
END options

BEGIN packages
  DISV6  flow.disv  disv
  NPF6  flow.npf  npf
  IC6  flow.ic  ic
  CHD6  flow.chd  chd_0
  WEL6  flow.wel  wel_0
  OC6  flow.oc  oc
END packages

