# File generated by Flopy version 3.3.2 on 10/22/2020 at 09:33:37.
BEGIN options
  PRINT_OPTION  summary
END options

BEGIN linear
  INNER_MAXIMUM  300
  LINEAR_ACCELERATION  bicgstab
END linear

