# File generated by Flopy version 3.3.3 on 02/18/2021 at 08:31:25.
BEGIN options
  TIME_UNITS  seconds
END options

BEGIN dimensions
  NPER  24
END dimensions

BEGIN perioddata
  2.62800000E+06  1       1.00000000
  2.62800000E+06  15       1.00000000
  2.62800000E+06  15       1.00000000
  2.62800000E+06  15       1.00000000
  2.62800000E+06  15       1.00000000
  2.62800000E+06  15       1.00000000
  2.62800000E+06  15       1.00000000
  2.62800000E+06  15       1.00000000
  2.62800000E+06  15       1.00000000
  2.62800000E+06  15       1.00000000
  2.62800000E+06  15       1.00000000
  2.62800000E+06  15       1.00000000
  2.62800000E+06  15       1.00000000
  2.62800000E+06  15       1.00000000
  2.62800000E+06  15       1.00000000
  2.62800000E+06  15       1.00000000
  2.62800000E+06  15       1.00000000
  2.62800000E+06  15       1.00000000
  2.62800000E+06  15       1.00000000
  2.62800000E+06  15       1.00000000
  2.62800000E+06  15       1.00000000
  2.62800000E+06  15       1.00000000
  2.62800000E+06  15       1.00000000
  2.62800000E+06  15       1.00000000
END perioddata

