# File generated by Flopy version 3.3.3 on 02/18/2021 at 08:31:25.
BEGIN options
  PRINT_STAGE
  PRINT_FLOWS
  SAVE_FLOWS
  BUDGET  FILEOUT  ex-gwf-sfr-p01b.lak.bud
  OBS6  FILEIN  ex-gwf-sfr-p01b.lak.obs
  MOVER
  LENGTH_CONVERSION       3.28081000
END options

BEGIN dimensions
  NLAKES  2
  NOUTLETS  2
END dimensions

BEGIN packagedata
  1    1040.00000000  12
  2    1010.00000000  26
END packagedata

BEGIN connectiondata
  1  1  1 9 7  HORIZONTAL  2.00000000E-09       0.00000000       0.00000000    2500.00000000    5000.00000000
  1  2  1 9 8  HORIZONTAL  2.00000000E-09       0.00000000       0.00000000    2500.00000000    5000.00000000
  1  3  1 10 6  HORIZONTAL  2.00000000E-09       0.00000000       0.00000000    2500.00000000    5000.00000000
  1  4  1 10 9  HORIZONTAL  2.00000000E-09       0.00000000       0.00000000    2500.00000000    5000.00000000
  1  5  1 11 6  HORIZONTAL  2.00000000E-09       0.00000000       0.00000000    2500.00000000    5000.00000000
  1  6  1 11 9  HORIZONTAL  2.00000000E-09       0.00000000       0.00000000    2500.00000000    5000.00000000
  1  7  1 12 7  HORIZONTAL  2.00000000E-09       0.00000000       0.00000000    2500.00000000    5000.00000000
  1  8  1 12 8  HORIZONTAL  2.00000000E-09       0.00000000       0.00000000    2500.00000000    5000.00000000
  1  9  2 10 7  VERTICAL  2.00000000E-09       0.00000000       0.00000000       0.00000000       0.00000000
  1  10  2 10 8  VERTICAL  2.00000000E-09       0.00000000       0.00000000       0.00000000       0.00000000
  1  11  2 11 7  VERTICAL  2.00000000E-09       0.00000000       0.00000000       0.00000000       0.00000000
  1  12  2 11 8  VERTICAL  2.00000000E-09       0.00000000       0.00000000       0.00000000       0.00000000
  2  1  1 10 3  HORIZONTAL  2.00000000E-09       0.00000000       0.00000000    2500.00000000    5000.00000000
  2  2  1 10 4  HORIZONTAL  2.00000000E-09       0.00000000       0.00000000    2500.00000000    5000.00000000
  2  3  1 10 5  HORIZONTAL  2.00000000E-09       0.00000000       0.00000000    2500.00000000    5000.00000000
  2  4  1 11 2  HORIZONTAL  2.00000000E-09       0.00000000       0.00000000    2500.00000000    5000.00000000
  2  5  1 11 6  HORIZONTAL  2.00000000E-09       0.00000000       0.00000000    2500.00000000    5000.00000000
  2  6  1 12 2  HORIZONTAL  2.00000000E-09       0.00000000       0.00000000    2500.00000000    5000.00000000
  2  7  1 12 6  HORIZONTAL  2.00000000E-09       0.00000000       0.00000000    2500.00000000    5000.00000000
  2  8  1 13 2  HORIZONTAL  2.00000000E-09       0.00000000       0.00000000    2500.00000000    5000.00000000
  2  9  1 13 6  HORIZONTAL  2.00000000E-09       0.00000000       0.00000000    2500.00000000    5000.00000000
  2  10  1 14 2  HORIZONTAL  2.00000000E-09       0.00000000       0.00000000    2500.00000000    5000.00000000
  2  11  1 14 6  HORIZONTAL  2.00000000E-09       0.00000000       0.00000000    2500.00000000    5000.00000000
  2  12  1 15 3  HORIZONTAL  2.00000000E-09       0.00000000       0.00000000    2500.00000000    5000.00000000
  2  13  1 15 4  HORIZONTAL  2.00000000E-09       0.00000000       0.00000000    2500.00000000    5000.00000000
  2  14  1 15 5  HORIZONTAL  2.00000000E-09       0.00000000       0.00000000    2500.00000000    5000.00000000
  2  15  2 11 3  VERTICAL  2.00000000E-09       0.00000000       0.00000000       0.00000000       0.00000000
  2  16  2 11 4  VERTICAL  2.00000000E-09       0.00000000       0.00000000       0.00000000       0.00000000
  2  17  2 11 5  VERTICAL  2.00000000E-09       0.00000000       0.00000000       0.00000000       0.00000000
  2  18  2 12 3  VERTICAL  2.00000000E-09       0.00000000       0.00000000       0.00000000       0.00000000
  2  19  2 12 4  VERTICAL  2.00000000E-09       0.00000000       0.00000000       0.00000000       0.00000000
  2  20  2 12 5  VERTICAL  2.00000000E-09       0.00000000       0.00000000       0.00000000       0.00000000
  2  21  2 13 3  VERTICAL  2.00000000E-09       0.00000000       0.00000000       0.00000000       0.00000000
  2  22  2 13 4  VERTICAL  2.00000000E-09       0.00000000       0.00000000       0.00000000       0.00000000
  2  23  2 13 5  VERTICAL  2.00000000E-09       0.00000000       0.00000000       0.00000000       0.00000000
  2  24  2 14 3  VERTICAL  2.00000000E-09       0.00000000       0.00000000       0.00000000       0.00000000
  2  25  2 14 4  VERTICAL  2.00000000E-09       0.00000000       0.00000000       0.00000000       0.00000000
  2  26  2 14 5  VERTICAL  2.00000000E-09       0.00000000       0.00000000       0.00000000       0.00000000
END connectiondata

BEGIN outlets
  1  1  0  MANNING    1040.00040000      12.00000000       0.03000000       0.00142857
  2  2  0  MANNING    1000.00000000      60.00000000       0.03000000       0.00125000
END outlets

BEGIN period  1
  1  rainfall  5e-08
  1  evaporation  1e-08
  1  runoff  1.5
  1  withdrawal  0.0
  2  rainfall  1.2e-08
  2  evaporation  1.1e-08
  2  runoff  3.0
  2  withdrawal  0.12
END period  1

