# File generated by Flopy version 3.3.3 on 02/18/2021 at 08:31:25.
BEGIN options
  BUDGET  FILEOUT  ex-gwf-sfr-p01b.cbc
  HEAD  FILEOUT  ex-gwf-sfr-p01b.hds
END options

BEGIN period  1
  SAVE  HEAD  LAST
  SAVE  BUDGET  LAST
END period  1

