# File generated by Flopy version 3.3.2 on 10/22/2020 at 09:30:40.
BEGIN options
END options

BEGIN packages
  DIS6  ex-gwf-maw-p03.dis  dis
  NPF6  ex-gwf-maw-p03.npf  npf
  IC6  ex-gwf-maw-p03.ic  ic
  CHD6  ex-gwf-maw-p03.chd  chd_0
  RCH6  ex-gwf-maw-p03.rcha  rcha
  OC6  ex-gwf-maw-p03.oc  oc
END packages

