# File generated by Flopy version 3.3.2 on 10/22/2020 at 09:30:40.
BEGIN options
  READASARRAYS
END options

BEGIN period  1
  recharge
    CONSTANT       0.00456600
END period  1

