# File generated by Flopy version 3.3.3 on 02/18/2021 at 08:28:40.
BEGIN options
  HEAD  FILEOUT  ex-gwf-maw-p03.hds
END options

BEGIN period  1
  SAVE  HEAD  LAST
  PRINT  BUDGET  LAST
END period  1

