# File generated by Flopy version 3.3.2 on 10/22/2020 at 09:30:14.
BEGIN options
  BUDGET  FILEOUT  ex-gwf-hanic.cbc
  HEAD  FILEOUT  ex-gwf-hanic.hds
END options

BEGIN period  1
  SAVE  HEAD  ALL
  SAVE  BUDGET  ALL
END period  1

