# File generated by Flopy version 3.3.2 on 10/22/2020 at 09:30:14.
BEGIN options
END options

BEGIN dimensions
  MAXBOUND  1
END dimensions

BEGIN period  1
  1 26 26      -1.00000000
END period  1

