# File generated by Flopy version 3.3.3 on 02/18/2021 at 08:32:22.
BEGIN options
  SAVE_FLOWS
END options

BEGIN packages
  DIS6  flow.dis  dis
  NPF6  flow.npf  npf
  IC6  flow.ic  ic
  BUY6  flow.buy  buy
  OC6  flow.oc  oc
END packages

