# File generated by Flopy version 3.3.3 on 02/18/2021 at 08:32:22.
BEGIN options
END options

BEGIN packages
  DIS6  trans.dis  dis
  MST6  trans.mst  mst
  IC6  trans.ic  ic
  ADV6  trans.adv  adv
  OC6  trans.oc  oc
END packages

