# File generated by Flopy version 3.3.3 on 02/18/2021 at 08:32:22.
BEGIN griddata
  strt  LAYERED
    INTERNAL  FACTOR  1.0
          35.00000000      35.00000000      35.00000000      35.00000000      35.00000000      35.00000000      35.00000000      35.00000000      35.00000000      35.00000000      35.00000000      35.00000000      35.00000000      35.00000000      35.00000000      35.00000000      35.00000000      35.00000000      35.00000000      35.00000000
          35.00000000      35.00000000      35.00000000      35.00000000      35.00000000      35.00000000      35.00000000      35.00000000      35.00000000      35.00000000      35.00000000      35.00000000      35.00000000      35.00000000      35.00000000      35.00000000      35.00000000      35.00000000      35.00000000      35.00000000
          35.00000000      35.00000000      35.00000000      35.00000000      35.00000000      35.00000000      35.00000000      35.00000000      35.00000000      35.00000000      35.00000000      35.00000000      35.00000000      35.00000000      35.00000000      35.00000000      35.00000000      35.00000000      35.00000000      35.00000000
          35.00000000      35.00000000      35.00000000      35.00000000      35.00000000      35.00000000      35.00000000      35.00000000      35.00000000      35.00000000      35.00000000      35.00000000      35.00000000      35.00000000      35.00000000      35.00000000      35.00000000      35.00000000      35.00000000      35.00000000
          35.00000000      35.00000000      35.00000000      35.00000000      35.00000000      35.00000000      35.00000000      35.00000000      35.00000000      35.00000000      35.00000000      17.50000000      17.50000000      17.50000000      17.50000000      17.50000000      17.50000000      17.50000000      17.50000000      17.50000000
          17.50000000      17.50000000      17.50000000      17.50000000      17.50000000      17.50000000      17.50000000      17.50000000      17.50000000      17.50000000      17.50000000      17.50000000      17.50000000      17.50000000      17.50000000      17.50000000      17.50000000      17.50000000      17.50000000      17.50000000
          17.50000000      17.50000000      17.50000000      17.50000000      17.50000000      17.50000000      17.50000000      17.50000000      17.50000000      17.50000000      17.50000000       0.00000000       0.00000000       0.00000000       0.00000000       0.00000000       0.00000000       0.00000000       0.00000000       0.00000000
           0.00000000       0.00000000       0.00000000       0.00000000       0.00000000       0.00000000       0.00000000       0.00000000       0.00000000       0.00000000       0.00000000       0.00000000       0.00000000       0.00000000       0.00000000       0.00000000       0.00000000       0.00000000       0.00000000       0.00000000
           0.00000000       0.00000000       0.00000000       0.00000000       0.00000000       0.00000000       0.00000000       0.00000000       0.00000000       0.00000000       0.00000000       0.00000000       0.00000000       0.00000000       0.00000000       0.00000000       0.00000000       0.00000000       0.00000000       0.00000000
           0.00000000       0.00000000       0.00000000       0.00000000       0.00000000       0.00000000       0.00000000       0.00000000       0.00000000       0.00000000       0.00000000       0.00000000       0.00000000       0.00000000       0.00000000       0.00000000       0.00000000       0.00000000       0.00000000       0.00000000
           0.00000000       0.00000000       0.00000000       0.00000000       0.00000000       0.00000000       0.00000000       0.00000000       0.00000000       0.00000000       0.00000000       0.00000000       0.00000000       0.00000000       0.00000000       0.00000000       0.00000000       0.00000000       0.00000000       0.00000000
           0.00000000       0.00000000       0.00000000       0.00000000       0.00000000       0.00000000       0.00000000       0.00000000       0.00000000       0.00000000       0.00000000       0.00000000       0.00000000       0.00000000       0.00000000       0.00000000       0.00000000       0.00000000       0.00000000       0.00000000
           0.00000000       0.00000000       0.00000000       0.00000000       0.00000000       0.00000000       0.00000000       0.00000000       0.00000000       0.00000000       0.00000000       0.00000000       0.00000000       0.00000000       0.00000000       0.00000000       0.00000000       0.00000000       0.00000000       0.00000000
           0.00000000       0.00000000       0.00000000       0.00000000       0.00000000       0.00000000       0.00000000       0.00000000       0.00000000       0.00000000       0.00000000       0.00000000       0.00000000       0.00000000       0.00000000       0.00000000       0.00000000       0.00000000       0.00000000       0.00000000
           0.00000000       0.00000000       0.00000000       0.00000000       0.00000000       0.00000000       0.00000000       0.00000000       0.00000000       0.00000000       0.00000000       0.00000000       0.00000000       0.00000000       0.00000000       0.00000000       0.00000000       0.00000000       0.00000000       0.00000000
    INTERNAL  FACTOR  1.0
          35.00000000      35.00000000      35.00000000      35.00000000      35.00000000      35.00000000      35.00000000      35.00000000      35.00000000      35.00000000      35.00000000      35.00000000      35.00000000      35.00000000      35.00000000      35.00000000      35.00000000      35.00000000      35.00000000      35.00000000
          35.00000000      35.00000000      35.00000000      35.00000000      35.00000000      35.00000000      35.00000000      35.00000000      35.00000000      35.00000000      35.00000000      35.00000000      35.00000000      35.00000000      35.00000000      35.00000000      35.00000000      35.00000000      35.00000000      35.00000000
          35.00000000      35.00000000      35.00000000      35.00000000      35.00000000      35.00000000      35.00000000      35.00000000      35.00000000      35.00000000      35.00000000      35.00000000      35.00000000      35.00000000      35.00000000      35.00000000      35.00000000      35.00000000      35.00000000      35.00000000
          35.00000000      35.00000000      35.00000000      35.00000000      35.00000000      35.00000000      35.00000000      35.00000000      35.00000000      35.00000000      35.00000000      35.00000000      35.00000000      35.00000000      35.00000000      35.00000000      35.00000000      35.00000000      35.00000000      35.00000000
          35.00000000      35.00000000      35.00000000      35.00000000      35.00000000      35.00000000      35.00000000      35.00000000      35.00000000      35.00000000      35.00000000      35.00000000      17.50000000      17.50000000      17.50000000      17.50000000      17.50000000      17.50000000      17.50000000      17.50000000
          17.50000000      17.50000000      17.50000000      17.50000000      17.50000000      17.50000000      17.50000000      17.50000000      17.50000000      17.50000000      17.50000000      17.50000000      17.50000000      17.50000000      17.50000000      17.50000000      17.50000000      17.50000000      17.50000000      17.50000000
          17.50000000      17.50000000      17.50000000      17.50000000      17.50000000      17.50000000      17.50000000      17.50000000      17.50000000      17.50000000      17.50000000      17.50000000       0.00000000       0.00000000       0.00000000       0.00000000       0.00000000       0.00000000       0.00000000       0.00000000
           0.00000000       0.00000000       0.00000000       0.00000000       0.00000000       0.00000000       0.00000000       0.00000000       0.00000000       0.00000000       0.00000000       0.00000000       0.00000000       0.00000000       0.00000000       0.00000000       0.00000000       0.00000000       0.00000000       0.00000000
           0.00000000       0.00000000       0.00000000       0.00000000       0.00000000       0.00000000       0.00000000       0.00000000       0.00000000       0.00000000       0.00000000       0.00000000       0.00000000       0.00000000       0.00000000       0.00000000       0.00000000       0.00000000       0.00000000       0.00000000
           0.00000000       0.00000000       0.00000000       0.00000000       0.00000000       0.00000000       0.00000000       0.00000000       0.00000000       0.00000000       0.00000000       0.00000000       0.00000000       0.00000000       0.00000000       0.00000000       0.00000000       0.00000000       0.00000000       0.00000000
           0.00000000       0.00000000       0.00000000       0.00000000       0.00000000       0.00000000       0.00000000       0.00000000       0.00000000       0.00000000       0.00000000       0.00000000       0.00000000       0.00000000       0.00000000       0.00000000       0.00000000       0.00000000       0.00000000       0.00000000
           0.00000000       0.00000000       0.00000000       0.00000000       0.00000000       0.00000000       0.00000000       0.00000000       0.00000000       0.00000000       0.00000000       0.00000000       0.00000000       0.00000000       0.00000000       0.00000000       0.00000000       0.00000000       0.00000000       0.00000000
           0.00000000       0.00000000       0.00000000       0.00000000       0.00000000       0.00000000       0.00000000       0.00000000       0.00000000       0.00000000       0.00000000       0.00000000       0.00000000       0.00000000       0.00000000       0.00000000       0.00000000       0.00000000       0.00000000       0.00000000
           0.00000000       0.00000000       0.00000000       0.00000000       0.00000000       0.00000000       0.00000000       0.00000000       0.00000000       0.00000000       0.00000000       0.00000000       0.00000000       0.00000000       0.00000000       0.00000000       0.00000000       0.00000000       0.00000000       0.00000000
           0.00000000       0.00000000       0.00000000       0.00000000       0.00000000       0.00000000       0.00000000       0.00000000       0.00000000       0.00000000       0.00000000       0.00000000       0.00000000       0.00000000       0.00000000       0.00000000       0.00000000       0.00000000       0.00000000       0.00000000
    INTERNAL  FACTOR  1.0
          35.00000000      35.00000000      35.00000000      35.00000000      35.00000000      35.00000000      35.00000000      35.00000000      35.00000000      35.00000000      35.00000000      35.00000000      35.00000000      35.00000000      35.00000000      35.00000000      35.00000000      35.00000000      35.00000000      35.00000000
          35.00000000      35.00000000      35.00000000      35.00000000      35.00000000      35.00000000      35.00000000      35.00000000      35.00000000      35.00000000      35.00000000      35.00000000      35.00000000      35.00000000      35.00000000      35.00000000      35.00000000      35.00000000      35.00000000      35.00000000
          35.00000000      35.00000000      35.00000000      35.00000000      35.00000000      35.00000000      35.00000000      35.00000000      35.00000000      35.00000000      35.00000000      35.00000000      35.00000000      35.00000000      35.00000000      35.00000000      35.00000000      35.00000000      35.00000000      35.00000000
          35.00000000      35.00000000      35.00000000      35.00000000      35.00000000      35.00000000      35.00000000      35.00000000      35.00000000      35.00000000      35.00000000      35.00000000      35.00000000      35.00000000      35.00000000      35.00000000      35.00000000      35.00000000      35.00000000      35.00000000
          35.00000000      35.00000000      35.00000000      35.00000000      35.00000000      35.00000000      35.00000000      35.00000000      35.00000000      35.00000000      35.00000000      35.00000000      35.00000000      17.50000000      17.50000000      17.50000000      17.50000000      17.50000000      17.50000000      17.50000000
          17.50000000      17.50000000      17.50000000      17.50000000      17.50000000      17.50000000      17.50000000      17.50000000      17.50000000      17.50000000      17.50000000      17.50000000      17.50000000      17.50000000      17.50000000      17.50000000      17.50000000      17.50000000      17.50000000      17.50000000
          17.50000000      17.50000000      17.50000000      17.50000000      17.50000000      17.50000000      17.50000000      17.50000000      17.50000000      17.50000000      17.50000000      17.50000000      17.50000000       0.00000000       0.00000000       0.00000000       0.00000000       0.00000000       0.00000000       0.00000000
           0.00000000       0.00000000       0.00000000       0.00000000       0.00000000       0.00000000       0.00000000       0.00000000       0.00000000       0.00000000       0.00000000       0.00000000       0.00000000       0.00000000       0.00000000       0.00000000       0.00000000       0.00000000       0.00000000       0.00000000
           0.00000000       0.00000000       0.00000000       0.00000000       0.00000000       0.00000000       0.00000000       0.00000000       0.00000000       0.00000000       0.00000000       0.00000000       0.00000000       0.00000000       0.00000000       0.00000000       0.00000000       0.00000000       0.00000000       0.00000000
           0.00000000       0.00000000       0.00000000       0.00000000       0.00000000       0.00000000       0.00000000       0.00000000       0.00000000       0.00000000       0.00000000       0.00000000       0.00000000       0.00000000       0.00000000       0.00000000       0.00000000       0.00000000       0.00000000       0.00000000
           0.00000000       0.00000000       0.00000000       0.00000000       0.00000000       0.00000000       0.00000000       0.00000000       0.00000000       0.00000000       0.00000000       0.00000000       0.00000000       0.00000000       0.00000000       0.00000000       0.00000000       0.00000000       0.00000000       0.00000000
           0.00000000       0.00000000       0.00000000       0.00000000       0.00000000       0.00000000       0.00000000       0.00000000       0.00000000       0.00000000       0.00000000       0.00000000       0.00000000       0.00000000       0.00000000       0.00000000       0.00000000       0.00000000       0.00000000       0.00000000
           0.00000000       0.00000000       0.00000000       0.00000000       0.00000000       0.00000000       0.00000000       0.00000000       0.00000000       0.00000000       0.00000000       0.00000000       0.00000000       0.00000000       0.00000000       0.00000000       0.00000000       0.00000000       0.00000000       0.00000000
           0.00000000       0.00000000       0.00000000       0.00000000       0.00000000       0.00000000       0.00000000       0.00000000       0.00000000       0.00000000       0.00000000       0.00000000       0.00000000       0.00000000       0.00000000       0.00000000       0.00000000       0.00000000       0.00000000       0.00000000
           0.00000000       0.00000000       0.00000000       0.00000000       0.00000000       0.00000000       0.00000000       0.00000000       0.00000000       0.00000000       0.00000000       0.00000000       0.00000000       0.00000000       0.00000000       0.00000000       0.00000000       0.00000000       0.00000000       0.00000000
    INTERNAL  FACTOR  1.0
          35.00000000      35.00000000      35.00000000      35.00000000      35.00000000      35.00000000      35.00000000      35.00000000      35.00000000      35.00000000      35.00000000      35.00000000      35.00000000      35.00000000      35.00000000      35.00000000      35.00000000      35.00000000      35.00000000      35.00000000
          35.00000000      35.00000000      35.00000000      35.00000000      35.00000000      35.00000000      35.00000000      35.00000000      35.00000000      35.00000000      35.00000000      35.00000000      35.00000000      35.00000000      35.00000000      35.00000000      35.00000000      35.00000000      35.00000000      35.00000000
          35.00000000      35.00000000      35.00000000      35.00000000      35.00000000      35.00000000      35.00000000      35.00000000      35.00000000      35.00000000      35.00000000      35.00000000      35.00000000      35.00000000      35.00000000      35.00000000      35.00000000      35.00000000      35.00000000      35.00000000
          35.00000000      35.00000000      35.00000000      35.00000000      35.00000000      35.00000000      35.00000000      35.00000000      35.00000000      35.00000000      35.00000000      35.00000000      35.00000000      35.00000000      35.00000000      35.00000000      35.00000000      35.00000000      35.00000000      35.00000000
          35.00000000      35.00000000      35.00000000      35.00000000      35.00000000      35.00000000      35.00000000      35.00000000      35.00000000      35.00000000      35.00000000      35.00000000      35.00000000      35.00000000      17.50000000      17.50000000      17.50000000      17.50000000      17.50000000      17.50000000
          17.50000000      17.50000000      17.50000000      17.50000000      17.50000000      17.50000000      17.50000000      17.50000000      17.50000000      17.50000000      17.50000000      17.50000000      17.50000000      17.50000000      17.50000000      17.50000000      17.50000000      17.50000000      17.50000000      17.50000000
          17.50000000      17.50000000      17.50000000      17.50000000      17.50000000      17.50000000      17.50000000      17.50000000      17.50000000      17.50000000      17.50000000      17.50000000      17.50000000      17.50000000       0.00000000       0.00000000       0.00000000       0.00000000       0.00000000       0.00000000
           0.00000000       0.00000000       0.00000000       0.00000000       0.00000000       0.00000000       0.00000000       0.00000000       0.00000000       0.00000000       0.00000000       0.00000000       0.00000000       0.00000000       0.00000000       0.00000000       0.00000000       0.00000000       0.00000000       0.00000000
           0.00000000       0.00000000       0.00000000       0.00000000       0.00000000       0.00000000       0.00000000       0.00000000       0.00000000       0.00000000       0.00000000       0.00000000       0.00000000       0.00000000       0.00000000       0.00000000       0.00000000       0.00000000       0.00000000       0.00000000
           0.00000000       0.00000000       0.00000000       0.00000000       0.00000000       0.00000000       0.00000000       0.00000000       0.00000000       0.00000000       0.00000000       0.00000000       0.00000000       0.00000000       0.00000000       0.00000000       0.00000000       0.00000000       0.00000000       0.00000000
           0.00000000       0.00000000       0.00000000       0.00000000       0.00000000       0.00000000       0.00000000       0.00000000       0.00000000       0.00000000       0.00000000       0.00000000       0.00000000       0.00000000       0.00000000       0.00000000       0.00000000       0.00000000       0.00000000       0.00000000
           0.00000000       0.00000000       0.00000000       0.00000000       0.00000000       0.00000000       0.00000000       0.00000000       0.00000000       0.00000000       0.00000000       0.00000000       0.00000000       0.00000000       0.00000000       0.00000000       0.00000000       0.00000000       0.00000000       0.00000000
           0.00000000       0.00000000       0.00000000       0.00000000       0.00000000       0.00000000       0.00000000       0.00000000       0.00000000       0.00000000       0.00000000       0.00000000       0.00000000       0.00000000       0.00000000       0.00000000       0.00000000       0.00000000       0.00000000       0.00000000
           0.00000000       0.00000000       0.00000000       0.00000000       0.00000000       0.00000000       0.00000000       0.00000000       0.00000000       0.00000000       0.00000000       0.00000000       0.00000000       0.00000000       0.00000000       0.00000000       0.00000000       0.00000000       0.00000000       0.00000000
           0.00000000       0.00000000       0.00000000       0.00000000       0.00000000       0.00000000       0.00000000       0.00000000       0.00000000       0.00000000       0.00000000       0.00000000       0.00000000       0.00000000       0.00000000       0.00000000       0.00000000       0.00000000       0.00000000       0.00000000
    INTERNAL  FACTOR  1.0
          35.00000000      35.00000000      35.00000000      35.00000000      35.00000000      35.00000000      35.00000000      35.00000000      35.00000000      35.00000000      35.00000000      35.00000000      35.00000000      35.00000000      35.00000000      35.00000000      35.00000000      35.00000000      35.00000000      35.00000000
          35.00000000      35.00000000      35.00000000      35.00000000      35.00000000      35.00000000      35.00000000      35.00000000      35.00000000      35.00000000      35.00000000      35.00000000      35.00000000      35.00000000      35.00000000      35.00000000      35.00000000      35.00000000      35.00000000      35.00000000
          35.00000000      35.00000000      35.00000000      35.00000000      35.00000000      35.00000000      35.00000000      35.00000000      35.00000000      35.00000000      35.00000000      35.00000000      35.00000000      35.00000000      35.00000000      35.00000000      35.00000000      35.00000000      35.00000000      35.00000000
          35.00000000      35.00000000      35.00000000      35.00000000      35.00000000      35.00000000      35.00000000      35.00000000      35.00000000      35.00000000      35.00000000      35.00000000      35.00000000      35.00000000      35.00000000      35.00000000      35.00000000      35.00000000      35.00000000      35.00000000
          35.00000000      35.00000000      35.00000000      35.00000000      35.00000000      35.00000000      35.00000000      35.00000000      35.00000000      35.00000000      35.00000000      35.00000000      35.00000000      35.00000000      35.00000000      17.50000000      17.50000000      17.50000000      17.50000000      17.50000000
          17.50000000      17.50000000      17.50000000      17.50000000      17.50000000      17.50000000      17.50000000      17.50000000      17.50000000      17.50000000      17.50000000      17.50000000      17.50000000      17.50000000      17.50000000      17.50000000      17.50000000      17.50000000      17.50000000      17.50000000
          17.50000000      17.50000000      17.50000000      17.50000000      17.50000000      17.50000000      17.50000000      17.50000000      17.50000000      17.50000000      17.50000000      17.50000000      17.50000000      17.50000000      17.50000000       0.00000000       0.00000000       0.00000000       0.00000000       0.00000000
           0.00000000       0.00000000       0.00000000       0.00000000       0.00000000       0.00000000       0.00000000       0.00000000       0.00000000       0.00000000       0.00000000       0.00000000       0.00000000       0.00000000       0.00000000       0.00000000       0.00000000       0.00000000       0.00000000       0.00000000
           0.00000000       0.00000000       0.00000000       0.00000000       0.00000000       0.00000000       0.00000000       0.00000000       0.00000000       0.00000000       0.00000000       0.00000000       0.00000000       0.00000000       0.00000000       0.00000000       0.00000000       0.00000000       0.00000000       0.00000000
           0.00000000       0.00000000       0.00000000       0.00000000       0.00000000       0.00000000       0.00000000       0.00000000       0.00000000       0.00000000       0.00000000       0.00000000       0.00000000       0.00000000       0.00000000       0.00000000       0.00000000       0.00000000       0.00000000       0.00000000
           0.00000000       0.00000000       0.00000000       0.00000000       0.00000000       0.00000000       0.00000000       0.00000000       0.00000000       0.00000000       0.00000000       0.00000000       0.00000000       0.00000000       0.00000000       0.00000000       0.00000000       0.00000000       0.00000000       0.00000000
           0.00000000       0.00000000       0.00000000       0.00000000       0.00000000       0.00000000       0.00000000       0.00000000       0.00000000       0.00000000       0.00000000       0.00000000       0.00000000       0.00000000       0.00000000       0.00000000       0.00000000       0.00000000       0.00000000       0.00000000
           0.00000000       0.00000000       0.00000000       0.00000000       0.00000000       0.00000000       0.00000000       0.00000000       0.00000000       0.00000000       0.00000000       0.00000000       0.00000000       0.00000000       0.00000000       0.00000000       0.00000000       0.00000000       0.00000000       0.00000000
           0.00000000       0.00000000       0.00000000       0.00000000       0.00000000       0.00000000       0.00000000       0.00000000       0.00000000       0.00000000       0.00000000       0.00000000       0.00000000       0.00000000       0.00000000       0.00000000       0.00000000       0.00000000       0.00000000       0.00000000
           0.00000000       0.00000000       0.00000000       0.00000000       0.00000000       0.00000000       0.00000000       0.00000000       0.00000000       0.00000000       0.00000000       0.00000000       0.00000000       0.00000000       0.00000000       0.00000000       0.00000000       0.00000000       0.00000000       0.00000000
    INTERNAL  FACTOR  1.0
          35.00000000      35.00000000      35.00000000      35.00000000      35.00000000      35.00000000      35.00000000      35.00000000      35.00000000      35.00000000      35.00000000      35.00000000      35.00000000      35.00000000      35.00000000      35.00000000      35.00000000      35.00000000      35.00000000      35.00000000
          35.00000000      35.00000000      35.00000000      35.00000000      35.00000000      35.00000000      35.00000000      35.00000000      35.00000000      35.00000000      35.00000000      35.00000000      35.00000000      35.00000000      35.00000000      35.00000000      35.00000000      35.00000000      35.00000000      35.00000000
          35.00000000      35.00000000      35.00000000      35.00000000      35.00000000      35.00000000      35.00000000      35.00000000      35.00000000      35.00000000      35.00000000      35.00000000      35.00000000      35.00000000      35.00000000      35.00000000      35.00000000      35.00000000      35.00000000      35.00000000
          35.00000000      35.00000000      35.00000000      35.00000000      35.00000000      35.00000000      35.00000000      35.00000000      35.00000000      35.00000000      35.00000000      35.00000000      35.00000000      35.00000000      35.00000000      35.00000000      35.00000000      35.00000000      35.00000000      35.00000000
          35.00000000      35.00000000      35.00000000      35.00000000      35.00000000      35.00000000      35.00000000      35.00000000      35.00000000      35.00000000      35.00000000      35.00000000      35.00000000      35.00000000      35.00000000      35.00000000      17.50000000      17.50000000      17.50000000      17.50000000
          17.50000000      17.50000000      17.50000000      17.50000000      17.50000000      17.50000000      17.50000000      17.50000000      17.50000000      17.50000000      17.50000000      17.50000000      17.50000000      17.50000000      17.50000000      17.50000000      17.50000000      17.50000000      17.50000000      17.50000000
          17.50000000      17.50000000      17.50000000      17.50000000      17.50000000      17.50000000      17.50000000      17.50000000      17.50000000      17.50000000      17.50000000      17.50000000      17.50000000      17.50000000      17.50000000      17.50000000       0.00000000       0.00000000       0.00000000       0.00000000
           0.00000000       0.00000000       0.00000000       0.00000000       0.00000000       0.00000000       0.00000000       0.00000000       0.00000000       0.00000000       0.00000000       0.00000000       0.00000000       0.00000000       0.00000000       0.00000000       0.00000000       0.00000000       0.00000000       0.00000000
           0.00000000       0.00000000       0.00000000       0.00000000       0.00000000       0.00000000       0.00000000       0.00000000       0.00000000       0.00000000       0.00000000       0.00000000       0.00000000       0.00000000       0.00000000       0.00000000       0.00000000       0.00000000       0.00000000       0.00000000
           0.00000000       0.00000000       0.00000000       0.00000000       0.00000000       0.00000000       0.00000000       0.00000000       0.00000000       0.00000000       0.00000000       0.00000000       0.00000000       0.00000000       0.00000000       0.00000000       0.00000000       0.00000000       0.00000000       0.00000000