# File generated by Flopy version 3.3.2 on 10/22/2020 at 09:33:23.
BEGIN options
END options

BEGIN dimensions
  MAXBOUND  7
END dimensions

BEGIN period  1
  1 7       0.00000000
  1 14       0.00000000
  1 18       0.00000000
  1 22       0.00000000
  1 26       0.00000000
  1 33       0.00000000
  1 40       0.00000000
END period  1

