# File generated by Flopy version 3.3.3 on 02/18/2021 at 08:31:32.
BEGIN options
END options

BEGIN dimensions
  MAXBOUND  7
END dimensions

BEGIN period  1
  1 7       0.00000000
  1 14       0.00000000
  1 18       0.00000000
  1 22       0.00000000
  1 26       0.00000000
  1 33       0.00000000
  1 40       0.00000000
END period  1

