# File generated by Flopy version 3.3.2 on 10/22/2020 at 09:33:23.
BEGIN options
END options

BEGIN timing
  TDIS6  ex-gwf-u1disv.tdis
END timing

BEGIN models
  gwf6  ex-gwf-u1disv.nam  ex-gwf-u1disv
END models

BEGIN exchanges
END exchanges

BEGIN solutiongroup  1
  ims6  ex-gwf-u1disv.ims  ex-gwf-u1disv
END solutiongroup  1

