# File generated by Flopy version 3.3.3 on 02/18/2021 at 08:31:52.
BEGIN options
END options

BEGIN griddata
  thetaim
    CONSTANT       1.58700000
  zetaim
    CONSTANT       0.00200000
END griddata

