# File generated by Flopy version 3.3.3 on 02/18/2021 at 08:28:11.
BEGIN options
  
  SAVE_SPECIFIC_DISCHARGE
END options

BEGIN griddata
  icelltype
    CONSTANT  0
  k
    CONSTANT       1.00000000
  k22
    CONSTANT       0.01000000
  angle1
    CONSTANT       0.00000000
END griddata

