# File generated by Flopy version 3.3.2 on 10/22/2020 at 09:30:14.
BEGIN options
END options

BEGIN timing
  TDIS6  ex-gwf-hanir.tdis
END timing

BEGIN models
  gwf6  ex-gwf-hanir.nam  ex-gwf-hanir
END models

BEGIN exchanges
END exchanges

BEGIN solutiongroup  1
  ims6  ex-gwf-hanir.ims  ex-gwf-hanir
END solutiongroup  1

