# File generated by Flopy version 3.3.3 on 02/18/2021 at 08:32:27.
BEGIN options
  PRINT_FLOWS
END options

BEGIN sources
  CHD-1  AUX  CONCENTRATION
END sources

