# File generated by Flopy version 3.3.2 on 10/22/2020 at 09:33:34.
BEGIN options
  TIME_UNITS  days
END options

BEGIN dimensions
  NPER  1
END dimensions

BEGIN perioddata
     400.00000000  400       1.00000000
END perioddata

