# File generated by Flopy version 3.3.3 on 02/18/2021 at 08:31:45.
BEGIN options
END options

BEGIN dimensions
  MAXBOUND  1
END dimensions

BEGIN period  1
  1 12 8       2.50000000
END period  1

