# File generated by Flopy version 3.3.3 on 02/18/2021 at 08:31:45.
BEGIN options
  DIGITS  10
  PRINT_INPUT
END options

BEGIN continuous  FILEOUT  trans.obs.csv
  SOURCELOC  CONCENTRATION  1 12 8
END continuous  FILEOUT  trans.obs.csv

