# File generated by Flopy version 3.3.3 on 02/18/2021 at 08:28:37.
BEGIN options
  SAVE_FLOWS
END options

BEGIN packages
  DIS6  ex-gwf-maw-p02.dis  dis
  NPF6  ex-gwf-maw-p02.npf  npf
  STO6  ex-gwf-maw-p02.sto  sto
  IC6  ex-gwf-maw-p02.ic  ic
  MAW6  ex-gwf-maw-p02.maw  maw_0
  OC6  ex-gwf-maw-p02.oc  oc
END packages

