# File generated by Flopy version 3.3.3 on 02/18/2021 at 08:28:37.
BEGIN options
  TIME_UNITS  days
END options

BEGIN dimensions
  NPER  1
END dimensions

BEGIN perioddata
       2.31481500  50       1.20000000
END perioddata

