# File generated by Flopy version 3.3.2 on 10/22/2020 at 09:30:39.
BEGIN options
  TIME_UNITS  days
END options

BEGIN dimensions
  NPER  1
END dimensions

BEGIN perioddata
       2.31481500  50       1.20000000
END perioddata

