# File generated by Flopy version 3.3.3 on 02/18/2021 at 08:28:38.
BEGIN options
  SAVE_SPECIFIC_DISCHARGE
END options

BEGIN griddata
  icelltype
    CONSTANT  0
  k
    CONSTANT       1.00000000
  k33
    CONSTANT  1.00000000E-16
END griddata

