# File generated by Flopy version 3.3.2 on 10/22/2020 at 09:30:39.
BEGIN griddata
  strt  LAYERED
    CONSTANT       3.05000000
    CONSTANT       9.14000000
END griddata

