# File generated by Flopy version 3.3.3 on 02/18/2021 at 08:28:38.
BEGIN options
END options

BEGIN period  1
  PRINT  BUDGET  LAST
END period  1

