# File generated by Flopy version 3.3.2 on 10/22/2020 at 09:33:39.
BEGIN options
  SORBTION
END options

BEGIN griddata
  porosity
    CONSTANT       0.25000000
  decay
    CONSTANT       0.00000000
  bulk_density
    CONSTANT       0.25000000
  distcoef
    CONSTANT       4.00000000
END griddata

