# File generated by Flopy version 3.3.3 on 02/18/2021 at 08:27:55.
BEGIN options
END options

BEGIN period  1
  PRINT  BUDGET  ALL
END period  1

