# File generated by Flopy version 3.3.3 on 02/18/2021 at 08:27:55.
BEGIN options
END options

BEGIN dimensions
  MAXBOUND  2
END dimensions

BEGIN period  1
  1 1 1       0.00000000
  1 1 3       0.00000000
END period  1

