# File generated by Flopy version 3.3.2 on 10/22/2020 at 09:30:01.
BEGIN options
END options

BEGIN timing
  TDIS6  ex-gwf-csub-p02b.tdis
END timing

BEGIN models
  gwf6  ex-gwf-csub-p02b.nam  ex-gwf-csub-p02b
END models

BEGIN exchanges
END exchanges

BEGIN solutiongroup  1
  ims6  ex-gwf-csub-p02b.ims  ex-gwf-csub-p02b
END solutiongroup  1

