# File generated by Flopy version 3.3.3 on 02/18/2021 at 08:27:51.
BEGIN options
END options

BEGIN timing
  TDIS6  ex-gwf-bump.tdis
END timing

BEGIN models
  gwf6  ex-gwf-bump.nam  ex-gwf-bump
END models

BEGIN exchanges
END exchanges

BEGIN solutiongroup  1
  ims6  ex-gwf-bump.ims  ex-gwf-bump
END solutiongroup  1

