# File generated by Flopy version 3.3.2 on 10/22/2020 at 09:33:30.
BEGIN options
  SAVE_SPECIFIC_DISCHARGE
  SAVE_SATURATION
END options

BEGIN griddata
  icelltype
    CONSTANT  1
  k  LAYERED
    INTERNAL  FACTOR  1.0
           0.84758400       0.84758400       0.84758400       0.84758400       0.84758400       0.84758400       0.84758400       0.84758400       0.84758400       0.84758400       0.84758400       0.84758400       0.84758400       0.84758400       0.84758400       0.84758400       0.84758400       0.84758400       0.84758400       0.84758400
           0.84758400       0.84758400       0.84758400       0.84758400       0.84758400       0.84758400       0.84758400       0.84758400       0.84758400       0.84758400       0.84758400       0.84758400       0.84758400       0.84758400       0.84758400       0.84758400       0.84758400       0.84758400       0.84758400       0.84758400
           0.84758400       0.84758400       0.84758400       0.84758400       0.84758400       0.84758400       0.84758400       0.84758400       0.84758400       0.84758400       0.84758400       0.84758400       0.84758400       0.84758400       0.84758400       0.84758400       0.84758400       0.84758400       0.84758400       0.84758400
           0.84758400       0.84758400       0.84758400       0.84758400       0.84758400       0.84758400       0.84758400       0.84758400       0.84758400       0.84758400       0.84758400       0.84758400       0.84758400       0.84758400       0.84758400       0.84758400       0.84758400       0.84758400       0.84758400       0.84758400
           0.84758400       0.84758400       0.84758400       0.84758400       0.84758400       0.84758400       0.84758400       0.84758400       0.84758400       0.84758400       0.84758400       0.84758400       0.84758400       0.84758400       0.84758400       0.84758400       0.84758400       0.84758400       0.84758400       0.84758400
           0.84758400       0.84758400       0.84758400       0.84758400       0.84758400       0.84758400       0.84758400       0.84758400       0.84758400       0.84758400       0.84758400       0.84758400       0.84758400       0.84758400       0.84758400       0.84758400       0.84758400       0.84758400       0.84758400       0.84758400
           0.84758400       0.84758400       0.84758400       0.84758400       0.84758400       0.84758400       0.84758400       0.84758400       0.84758400       0.84758400       0.84758400       0.84758400       0.84758400       0.84758400       0.84758400       0.84758400       0.84758400       0.84758400       0.84758400       0.84758400
           0.84758400       0.84758400       0.84758400       0.84758400       0.84758400       0.84758400       0.84758400       0.84758400       0.84758400       0.84758400       0.84758400       0.84758400       0.84758400       0.84758400       0.84758400       0.84758400       0.84758400       0.84758400       0.84758400       0.84758400
           0.84758400       0.84758400       0.84758400       0.84758400       0.84758400       0.84758400       0.84758400       0.84758400       0.84758400       0.84758400       0.84758400       0.84758400       0.84758400       0.84758400       0.84758400       0.84758400       0.84758400       0.84758400       0.84758400       0.84758400
           0.84758400       0.84758400       0.84758400       0.84758400       0.84758400       0.84758400       0.84758400       0.84758400       0.84758400       0.84758400       0.84758400       0.84758400       0.84758400       0.84758400       0.84758400       0.84758400       0.84758400       0.84758400       0.84758400       0.84758400
           0.84758400       0.84758400       0.84758400       0.84758400       0.84758400       0.84758400       0.84758400       0.84758400       0.84758400       0.84758400       0.84758400       0.84758400       0.84758400       0.84758400       0.84758400       0.84758400       0.84758400       0.84758400       0.84758400       0.84758400
           0.84758400       0.84758400       0.84758400       0.84758400       0.84758400       0.84758400       0.84758400       0.84758400       0.84758400       0.84758400       0.84758400       0.84758400       0.84758400       0.84758400       0.84758400       0.84758400       0.84758400       0.84758400       0.84758400       0.84758400
           0.84758400       0.84758400       0.84758400       0.84758400       0.84758400       0.84758400       0.84758400       0.84758400       0.84758400       0.84758400       0.84758400       0.84758400       0.84758400       0.84758400       0.84758400       0.84758400       0.84758400       0.84758400       0.84758400       0.84758400
           0.84758400       0.84758400       0.84758400       0.84758400       0.84758400       0.84758400       0.84758400       0.84758400       0.84758400       0.84758400       0.84758400       0.84758400       0.84758400       0.84758400       0.84758400       0.84758400       0.84758400       0.84758400       0.84758400       0.84758400
           0.84758400       0.84758400       0.84758400       0.84758400       0.84758400       0.84758400       0.84758400       0.84758400       0.84758400       0.84758400       0.84758400       0.84758400       0.84758400       0.84758400       0.84758400       0.84758400       0.84758400       0.84758400       0.84758400       0.84758400
           0.84758400       0.84758400       0.84758400       0.84758400       0.84758400       0.84758400       0.84758400       0.84758400       0.84758400       0.84758400       0.84758400       0.84758400       0.84758400       0.84758400       0.84758400       0.84758400       0.84758400       0.84758400       0.84758400       0.84758400
           0.84758400       0.84758400       0.84758400       0.84758400       0.84758400       0.84758400       0.84758400       0.84758400       0.84758400       0.84758400       0.84758400       0.84758400       0.84758400       0.84758400       0.84758400       0.84758400       0.84758400       0.84758400       0.84758400       0.84758400
           0.84758400       0.84758400       0.84758400       0.84758400       0.84758400       0.84758400       0.84758400       0.84758400       0.84758400       0.84758400       0.84758400       0.84758400       0.84758400       0.84758400       0.84758400       0.84758400       0.84758400       0.84758400       0.84758400       0.84758400
           0.84758400       0.84758400       0.84758400       0.84758400       0.84758400       0.84758400       0.84758400       0.84758400       0.84758400       0.84758400       0.84758400       0.84758400       0.84758400       0.84758400       0.84758400       0.84758400       0.84758400       0.84758400       0.84758400       0.84758400
           0.84758400       0.84758400       0.84758400       0.84758400       0.84758400       0.84758400       0.84758400       0.84758400       0.84758400       0.84758400       0.84758400       0.84758400       0.84758400       0.84758400       0.84758400       0.84758400       0.84758400       0.84758400       0.84758400       0.84758400
    INTERNAL  FACTOR  1.0
           0.84758400       0.84758400       0.84758400       0.84758400       0.84758400       0.84758400       0.84758400       0.84758400       0.84758400       0.84758400       0.84758400       0.84758400       0.84758400       0.84758400       0.84758400       0.84758400       0.84758400       0.84758400       0.84758400       0.84758400
           0.84758400       0.84758400       0.84758400       0.84758400       0.84758400       0.84758400       0.84758400       0.84758400       0.84758400       0.84758400       0.84758400       0.84758400       0.84758400       0.84758400       0.84758400       0.84758400       0.84758400       0.84758400       0.84758400       0.84758400
           0.84758400       0.84758400       0.84758400       0.84758400       0.84758400       0.84758400       0.84758400       0.84758400       0.84758400       0.84758400       0.84758400       0.84758400       0.84758400       0.84758400       0.84758400       0.84758400       0.84758400       0.84758400       0.84758400       0.84758400
           0.84758400       0.84758400       0.84758400       0.84758400       0.84758400       0.84758400       0.84758400       0.84758400       0.84758400       0.84758400       0.84758400       0.84758400       0.84758400       0.84758400       0.84758400       0.84758400       0.84758400       0.84758400       0.84758400       0.84758400
           0.84758400       0.84758400       0.84758400       0.84758400       0.84758400       0.84758400       0.84758400       0.84758400       0.84758400       0.84758400       0.84758400       0.84758400       0.84758400       0.84758400       0.84758400       0.84758400       0.84758400       0.84758400       0.84758400       0.84758400
           0.84758400       0.84758400       0.84758400       0.84758400       0.84758400       0.84758400       0.84758400       0.84758400       0.84758400       0.84758400       0.84758400       0.84758400       0.84758400       0.84758400       0.84758400       0.84758400       0.84758400       0.84758400       0.84758400       0.84758400
           0.84758400       0.84758400       0.84758400       0.84758400       0.84758400       0.84758400       0.84758400       0.84758400       0.84758400       0.84758400       0.84758400       0.84758400       0.84758400       0.84758400       0.84758400       0.84758400       0.84758400       0.84758400       0.84758400       0.84758400
           0.84758400       0.84758400       0.84758400       0.84758400       0.84758400       0.84758400       0.84758400       0.84758400       0.84758400       0.84758400       0.84758400       0.84758400       0.84758400       0.84758400       0.84758400       0.84758400       0.84758400       0.84758400       0.84758400       0.84758400
           0.84758400       0.84758400       0.84758400       0.84758400       0.84758400       0.84758400       0.84758400       0.84758400       0.84758400       0.84758400       0.84758400       0.84758400       0.84758400       0.84758400       0.84758400       0.84758400       0.84758400       0.84758400       0.84758400       0.84758400
           0.84758400       0.84758400       0.84758400       0.84758400       0.84758400       0.84758400       0.84758400       0.84758400       0.84758400       0.84758400       0.84758400       0.84758400       0.84758400       0.84758400       0.84758400       0.84758400       0.84758400       0.84758400       0.84758400       0.84758400
           0.84758400       0.84758400       0.84758400       0.84758400       0.84758400       0.84758400       0.84758400       0.84758400       0.84758400       0.84758400       0.84758400       0.84758400       0.84758400       0.84758400       0.84758400       0.84758400       0.84758400       0.84758400       0.84758400       0.84758400
           0.84758400       0.84758400       0.84758400       0.84758400       0.84758400       0.84758400       0.84758400       0.84758400       0.84758400       0.84758400       0.84758400       0.84758400       0.84758400       0.84758400       0.84758400       0.84758400       0.84758400       0.84758400       0.84758400       0.84758400
           0.84758400       0.84758400       0.84758400       0.84758400       0.84758400       0.84758400       0.84758400       0.84758400       0.84758400       0.84758400       0.84758400       0.84758400       0.84758400       0.84758400       0.84758400       0.84758400       0.84758400       0.84758400       0.84758400       0.84758400
           0.84758400       0.84758400       0.84758400       0.84758400       0.84758400       0.84758400       0.84758400       0.84758400       0.84758400       0.84758400       0.84758400       0.84758400       0.84758400       0.84758400       0.84758400       0.84758400       0.84758400       0.84758400       0.84758400       0.84758400
           0.84758400       0.84758400       0.84758400       0.84758400       0.84758400       0.84758400       0.84758400       0.84758400       0.84758400       0.84758400       0.84758400       0.84758400       0.84758400       0.84758400       0.84758400       0.84758400       0.84758400       0.84758400       0.84758400       0.84758400
           0.84758400       0.84758400       0.84758400       0.84758400       0.84758400       0.84758400       0.84758400       0.84758400       0.84758400       0.84758400       0.84758400       0.84758400       0.84758400       0.84758400       0.84758400       0.84758400       0.84758400       0.84758400       0.84758400       0.84758400
           0.84758400       0.84758400       0.84758400       0.84758400       0.84758400       0.84758400       0.84758400       0.84758400       0.84758400       0.84758400       0.84758400       0.84758400       0.84758400       0.84758400       0.84758400       0.84758400       0.84758400       0.84758400       0.84758400       0.84758400
           0.84758400       0.84758400       0.84758400       0.84758400       0.84758400       0.84758400       0.84758400       0.84758400       0.84758400       0.84758400       0.84758400       0.84758400       0.84758400       0.84758400       0.84758400       0.84758400       0.84758400       0.84758400       0.84758400       0.84758400
           0.84758400       0.84758400       0.84758400       0.84758400       0.84758400       0.84758400       0.84758400       0.84758400       0.84758400       0.84758400       0.84758400       0.84758400       0.84758400       0.84758400       0.84758400       0.84758400       0.84758400       0.84758400       0.84758400       0.84758400
           0.84758400       0.84758400       0.84758400       0.84758400       0.84758400       0.84758400       0.84758400       0.84758400       0.84758400       0.84758400       0.84758400       0.84758400       0.84758400       0.84758400       0.84758400       0.84758400       0.84758400       0.84758400       0.84758400       0.84758400
    INTERNAL  FACTOR  1.0
           0.84758400       0.84758400       0.84758400       0.84758400       0.84758400       0.84758400       0.84758400       0.84758400       0.84758400       0.84758400       0.84758400       0.84758400       0.84758400       0.84758400       0.84758400       0.84758400       0.84758400       0.84758400       0.84758400       0.84758400
           0.84758400       0.84758400       0.84758400       0.84758400       0.84758400       0.84758400       0.84758400       0.84758400       0.84758400       0.84758400       0.84758400       0.84758400       0.84758400       0.84758400       0.84758400       0.84758400       0.84758400       0.84758400       0.84758400       0.84758400
           0.84758400       0.84758400       0.84758400       0.84758400       0.84758400       0.84758400       0.84758400       0.84758400       0.84758400       0.84758400       0.84758400       0.84758400       0.84758400       0.84758400       0.84758400       0.84758400       0.84758400       0.84758400       0.84758400       0.84758400
           0.84758400       0.84758400       0.84758400       0.84758400       0.84758400       0.84758400       0.84758400       0.84758400       0.84758400       0.84758400       0.84758400       0.84758400       0.84758400       0.84758400       0.84758400       0.84758400       0.84758400       0.84758400       0.84758400       0.84758400
           0.84758400       0.84758400       0.84758400       0.84758400       0.84758400       0.84758400       0.84758400       0.84758400       0.84758400       0.84758400       0.84758400       0.84758400       0.84758400       0.84758400       0.84758400       0.84758400       0.84758400       0.84758400       0.84758400       0.84758400
           0.84758400       0.84758400       0.84758400       0.84758400       0.84758400       0.84758400       0.84758400       0.84758400       0.84758400       0.84758400       0.84758400       0.84758400       0.84758400       0.84758400       0.84758400       0.84758400       0.84758400       0.84758400       0.84758400       0.84758400
           0.84758400       0.84758400       0.84758400       0.84758400       0.84758400       0.84758400       0.84758400       0.84758400       0.84758400       0.84758400       0.84758400       0.84758400       0.84758400       0.84758400       0.84758400       0.84758400       0.84758400       0.84758400       0.84758400       0.84758400
           0.84758400       0.84758400       0.84758400       0.84758400       0.84758400       0.84758400       0.84758400       0.84758400       0.84758400       0.84758400       0.84758400       0.84758400       0.84758400       0.84758400       0.84758400       0.84758400       0.84758400       0.84758400       0.84758400       0.84758400
           0.84758400       0.84758400       0.84758400       0.84758400       0.84758400       0.84758400       0.84758400       0.84758400       0.84758400       0.84758400       0.84758400       0.84758400       0.84758400       0.84758400       0.84758400       0.84758400       0.84758400       0.84758400       0.84758400       0.84758400
           0.84758400       0.84758400       0.84758400       0.84758400       0.84758400       0.84758400       0.84758400       0.84758400       0.84758400       0.84758400       0.84758400       0.84758400       0.84758400       0.84758400       0.84758400       0.84758400       0.84758400       0.84758400       0.84758400       0.84758400
           0.84758400       0.84758400       0.84758400       0.84758400       0.84758400       0.84758400       0.84758400       0.84758400       0.84758400       0.84758400       0.84758400       0.84758400       0.84758400       0.84758400       0.84758400       0.84758400       0.84758400       0.84758400       0.84758400       0.84758400
           0.84758400       0.84758400       0.84758400       0.84758400       0.84758400       0.84758400       0.84758400       0.84758400       0.84758400       0.84758400       0.84758400       0.84758400       0.84758400       0.84758400       0.84758400       0.84758400       0.84758400       0.84758400       0.84758400       0.84758400
           0.84758400       0.84758400       0.84758400       0.84758400       0.84758400       0.84758400       0.84758400       0.84758400       0.84758400       0.84758400       0.84758400       0.84758400       0.84758400       0.84758400       0.84758400       0.84758400       0.84758400       0.84758400       0.84758400       0.84758400
           0.84758400       0.84758400       0.84758400       0.84758400       0.84758400       0.84758400       0.84758400       0.84758400       0.84758400       0.84758400       0.84758400       0.84758400       0.84758400       0.84758400       0.84758400       0.84758400       0.84758400       0.84758400       0.84758400       0.84758400
           0.84758400       0.84758400       0.84758400       0.84758400       0.84758400       0.84758400       0.84758400       0.84758400       0.84758400       0.84758400       0.84758400       0.84758400       0.84758400       0.84758400       0.84758400       0.84758400       0.84758400       0.84758400       0.84758400       0.84758400
           0.84758400       0.84758400       0.84758400       0.84758400       0.84758400       0.84758400       0.84758400       0.84758400       0.84758400       0.84758400       0.84758400       0.84758400       0.84758400       0.84758400       0.84758400       0.84758400       0.84758400       0.84758400       0.84758400       0.84758400
           0.84758400       0.84758400       0.84758400       0.84758400       0.84758400       0.84758400       0.84758400       0.84758400       0.84758400       0.84758400       0.84758400       0.84758400       0.84758400       0.84758400       0.84758400       0.84758400       0.84758400       0.84758400       0.84758400       0.84758400
           0.84758400       0.84758400       0.84758400       0.84758400       0.84758400       0.84758400       0.84758400       0.84758400       0.84758400       0.84758400       0.84758400       0.84758400       0.84758400       0.84758400       0.84758400       0.84758400       0.84758400       0.84758400       0.84758400       0.84758400
           0.84758400       0.84758400       0.84758400       0.84758400       0.84758400       0.84758400       0.84758400       0.84758400       0.84758400       0.84758400       0.84758400       0.84758400       0.84758400       0.84758400       0.84758400       0.84758400       0.84758400       0.84758400       0.84758400       0.84758400
           0.84758400       0.84758400       0.84758400       0.84758400       0.84758400       0.84758400       0.84758400       0.84758400       0.84758400       0.84758400       0.84758400       0.84758400       0.84758400       0.84758400       0.84758400       0.84758400       0.84758400       0.84758400       0.84758400       0.84758400
    INTERNAL  FACTOR  1.0
           0.84758400       0.84758400       0.84758400       0.84758400       0.84758400       0.84758400       0.84758400       0.84758400       0.84758400       0.84758400       0.84758400       0.84758400       0.84758400       0.84758400       0.84758400       0.84758400       0.84758400       0.84758400       0.84758400       0.84758400
           0.84758400       0.84758400       0.84758400       0.84758400       0.84758400       0.84758400       0.84758400       0.84758400       0.84758400       0.84758400       0.84758400       0.84758400       0.84758400       0.84758400       0.84758400       0.84758400       0.84758400       0.84758400       0.84758400       0.84758400
           0.84758400       0.84758400       0.84758400       0.84758400       0.84758400       0.84758400       0.84758400       0.84758400       0.84758400       0.84758400       0.84758400       0.84758400       0.84758400       0.84758400       0.84758400       0.84758400       0.84758400       0.84758400       0.84758400       0.84758400
           0.84758400       0.84758400       0.84758400       0.84758400       0.84758400       0.84758400       0.84758400       0.84758400       0.84758400       0.84758400       0.84758400       0.84758400       0.84758400       0.84758400       0.84758400       0.84758400       0.84758400       0.84758400       0.84758400       0.84758400
           0.84758400       0.84758400       0.84758400       0.84758400       0.84758400       0.84758400       0.84758400       0.84758400       0.84758400       0.84758400       0.84758400       0.84758400       0.84758400       0.84758400       0.84758400       0.84758400       0.84758400       0.84758400       0.84758400       0.84758400
           0.84758400       0.84758400       0.84758400       0.84758400       0.84758400       0.84758400       0.84758400       0.84758400       0.84758400       0.84758400       0.84758400       0.84758400       0.84758400       0.84758400       0.84758400       0.84758400       0.84758400       0.84758400       0.84758400       0.84758400
           0.84758400       0.84758400       0.84758400       0.84758400       0.84758400       0.84758400       0.84758400       0.84758400       0.84758400       0.84758400       0.84758400       0.84758400       0.84758400       0.84758400       0.84758400       0.84758400       0.84758400       0.84758400       0.84758400       0.84758400
           0.84758400       0.84758400       0.84758400       0.84758400       0.84758400       0.84758400       0.84758400       0.84758400       0.84758400       0.84758400       0.84758400       0.84758400       0.84758400       0.84758400       0.84758400       0.84758400       0.84758400       0.84758400       0.84758400       0.84758400
           0.84758400       0.84758400       0.84758400       0.84758400       0.84758400       0.84758400       0.84758400       0.84758400       0.84758400       0.84758400       0.84758400       0.84758400       0.84758400       0.84758400       0.84758400       0.84758400       0.84758400       0.84758400       0.84758400       0.84758400
           0.84758400       0.84758400       0.84758400       0.84758400       0.84758400       0.84758400       0.84758400       0.84758400       0.84758400       0.84758400       0.84758400       0.84758400       0.84758400       0.84758400       0.84758400       0.84758400       0.84758400       0.84758400       0.84758400       0.84758400
           0.84758400       0.84758400       0.84758400       0.84758400       0.84758400       0.84758400       0.84758400       0.84758400       0.84758400       0.84758400       0.84758400       0.84758400       0.84758400       0.84758400       0.84758400       0.84758400       0.84758400       0.84758400       0.84758400       0.84758400
           0.84758400       0.84758400       0.84758400       0.84758400       0.84758400       0.84758400       0.84758400       0.84758400       0.84758400       0.84758400       0.84758400       0.84758400       0.84758400       0.84758400       0.84758400       0.84758400       0.84758400       0.84758400       0.84758400       0.84758400
           0.84758400       0.84758400       0.84758400       0.84758400       0.84758400       0.84758400       0.84758400       0.84758400       0.84758400       0.84758400       0.84758400       0.84758400       0.84758400       0.84758400       0.84758400       0.84758400       0.84758400       0.84758400       0.84758400       0.84758400
           0.84758400       0.84758400       0.84758400       0.84758400       0.84758400       0.84758400       0.84758400       0.84758400       0.84758400       0.84758400       0.84758400       0.84758400       0.84758400       0.84758400       0.84758400       0.84758400       0.84758400       0.84758400       0.84758400       0.84758400
           0.84758400       0.84758400       0.84758400       0.84758400       0.84758400       0.84758400       0.84758400       0.84758400       0.84758400       0.84758400       0.84758400       0.84758400       0.84758400       0.84758400       0.84758400       0.84758400       0.84758400       0.84758400       0.84758400       0.84758400
           0.84758400       0.84758400       0.84758400       0.84758400       0.84758400       0.84758400       0.84758400       0.84758400       0.84758400       0.84758400       0.84758400       0.84758400       0.84758400       0.84758400       0.84758400       0.84758400       0.84758400       0.84758400       0.84758400       0.84758400
           0.84758400       0.84758400       0.84758400       0.84758400       0.84758400       0.84758400       0.84758400       0.84758400       0.84758400       0.84758400       0.84758400       0.84758400       0.84758400       0.84758400       0.84758400       0.84758400       0.84758400       0.84758400       0.84758400       0.84758400
           0.84758400       0.84758400       0.84758400       0.84758400       0.84758400       0.84758400       0.84758400       0.84758400       0.84758400       0.84758400       0.84758400       0.84758400       0.84758400       0.84758400       0.84758400       0.84758400       0.84758400       0.84758400       0.84758400       0.84758400
           0.84758400       0.84758400       0.84758400       0.84758400       0.84758400       0.84758400       0.84758400       0.84758400       0.84758400       0.84758400       0.84758400       0.84758400       0.84758400       0.84758400       0.84758400       0.84758400       0.84758400       0.84758400       0.84758400       0.84758400
           0.84758400       0.84758400       0.84758400       0.84758400       0.84758400       0.84758400       0.84758400       0.84758400       0.84758400       0.84758400       0.84758400       0.84758400       0.84758400       0.84758400       0.84758400       0.84758400       0.84758400       0.84758400       0.84758400       0.84758400
    INTERNAL  FACTOR  1.0
           0.84758400       0.84758400       0.84758400       0.84758400       0.84758400       0.84758400       0.84758400       0.84758400       0.84758400       0.84758400       0.84758400       0.84758400       0.84758400       0.84758400       0.84758400       0.84758400       0.84758400       0.84758400       0.84758400       0.84758400
           0.84758400       0.84758400       0.84758400       0.84758400       0.84758400       0.84758400       0.84758400       0.84758400       0.84758400       0.84758400       0.84758400       0.84758400       0.84758400       0.84758400       0.84758400       0.84758400       0.84758400       0.84758400       0.84758400       0.84758400
           0.84758400       0.84758400       0.84758400       0.84758400       0.84758400       0.84758400       0.84758400       0.84758400       0.84758400       0.84758400       0.84758400       0.84758400       0.84758400       0.84758400       0.84758400       0.84758400       0.84758400       0.84758400       0.84758400       0.84758400
           0.84758400       0.84758400       0.84758400       0.84758400       0.84758400       0.84758400       0.84758400       0.84758400       0.84758400       0.84758400       0.84758400       0.84758400       0.84758400       0.84758400       0.84758400       0.84758400       0.84758400       0.84758400       0.84758400       0.84758400
           0.84758400       0.84758400       0.84758400       0.84758400       0.84758400       0.84758400       0.84758400       0.84758400       0.84758400       0.84758400       0.84758400       0.84758400       0.84758400       0.84758400       0.84758400       0.84758400       0.84758400       0.84758400       0.84758400       0.84758400