# File generated by Flopy version 3.3.2 on 10/22/2020 at 09:33:30.
BEGIN griddata
  strt
    CONSTANT     600.00000000
END griddata

