# File generated by Flopy version 3.3.2 on 10/22/2020 at 09:33:30.
BEGIN options
  SAVE_FLOWS
  NEWTON
END options

BEGIN packages
  DIS6  flow.dis  dis
  NPF6  flow.npf  npf
  IC6  flow.ic  ic
  CHD6  flow.chd  chd-1
  RCH6  flow.rch  rch-1
  OC6  flow.oc  oc
END packages

