# File generated by Flopy version 3.3.3 on 02/18/2021 at 08:31:40.
BEGIN options
  TIME_UNITS  days
END options

BEGIN dimensions
  NPER  2
END dimensions

BEGIN perioddata
     730.00000000  1       1.00000000
   29270.00000000  1       1.00000000
END perioddata

