# File generated by Flopy version 3.3.3 on 02/18/2021 at 08:31:35.
BEGIN options
  HEAD  FILEOUT  ex-gwf-zaidel.hds
END options

BEGIN period  1
  SAVE  HEAD  ALL
END period  1

