# File generated by Flopy version 3.3.2 on 10/22/2020 at 09:33:26.
BEGIN options
  HEAD  FILEOUT  ex-gwf-zaidel.hds
END options

BEGIN period  1
  SAVE  HEAD  ALL
END period  1

