# File generated by Flopy version 3.3.2 on 10/22/2020 at 09:33:26.
BEGIN options
END options

BEGIN dimensions
  MAXBOUND  2
END dimensions

BEGIN period  1
  1 1 1      23.00000000
  1 1 200      10.00000000
END period  1

