# File generated by Flopy version 3.3.3 on 02/18/2021 at 08:31:35.
BEGIN options
END options

BEGIN timing
  TDIS6  ex-gwf-zaidel.tdis
END timing

BEGIN models
  gwf6  ex-gwf-zaidel.nam  ex-gwf-zaidel
END models

BEGIN exchanges
END exchanges

BEGIN solutiongroup  1
  ims6  ex-gwf-zaidel.ims  ex-gwf-zaidel
END solutiongroup  1

