# File generated by Flopy version 3.3.2 on 10/22/2020 at 09:33:55.
BEGIN options
  auxiliary  CONCENTRATION
END options

BEGIN dimensions
  MAXBOUND  1
END dimensions

BEGIN period  1
  1 1 1       0.10000000       1.00000000
END period  1

BEGIN period  2
  1 1 1       0.10000000       0.00000000
END period  2

