# File generated by Flopy version 3.3.3 on 02/18/2021 at 08:32:11.
BEGIN options
  auxiliary  CONCENTRATION
END options

BEGIN dimensions
  MAXBOUND  1
END dimensions

BEGIN period  1
  1 1 1       0.10000000       1.00000000
END period  1

BEGIN period  2
  1 1 1       0.10000000       0.00000000
END period  2

