# File generated by Flopy version 3.3.2 on 10/22/2020 at 09:33:55.
BEGIN options
  TIME_UNITS  days
END options

BEGIN dimensions
  NPER  2
END dimensions

BEGIN perioddata
     160.00000000  1       1.00000000
     680.00000000  1       1.00000000
END perioddata

