# File generated by Flopy version 3.3.3 on 02/18/2021 at 08:32:05.
BEGIN options
  TIME_UNITS  days
END options

BEGIN dimensions
  NPER  2
END dimensions

BEGIN perioddata
    1825.00000000  365       1.00000000
    5475.00000000  1095       1.00000000
END perioddata

