# File generated by Flopy version 3.3.2 on 10/22/2020 at 09:33:49.
BEGIN options
  TIME_UNITS  days
END options

BEGIN dimensions
  NPER  2
END dimensions

BEGIN perioddata
    1825.00000000  365       1.00000000
    5475.00000000  1095       1.00000000
END perioddata

