# File generated by Flopy version 3.3.2 on 10/22/2020 at 09:33:49.
BEGIN options
  SAVE_FLOWS
END options

BEGIN packages
  DIS6  gwf_p08_mf6.dis  dis
  NPF6  gwf_p08_mf6.npf  npf
  STO6  gwf_p08_mf6.sto  sto
  IC6  gwf_p08_mf6.ic  ic
  CHD6  gwf_p08_mf6.chd  chd-1
  RCH6  gwf_p08_mf6.rch  rch-1
  OC6  gwf_p08_mf6.oc  oc
END packages

