# File generated by Flopy version 3.3.2 on 10/22/2020 at 09:33:49.
BEGIN options
  READASARRAYS
  PRINT_FLOWS
END options

BEGIN period  1
  recharge
    CONSTANT  2.73972603E-04
END period  1

