# File generated by Flopy version 3.3.3 on 02/18/2021 at 08:32:05.
BEGIN options
  SCHEME  tvd
END options

