# File generated by Flopy version 3.3.3 on 02/18/2021 at 08:31:42.
BEGIN options
  DIGITS  10
  PRINT_INPUT
END options

BEGIN continuous  FILEOUT  trans.obs.csv
  X005  CONCENTRATION  1 1 1
  X405  CONCENTRATION  1 1 41
  X1105  CONCENTRATION  1 1 111
END continuous  FILEOUT  trans.obs.csv

