# File generated by Flopy version 3.3.2 on 10/22/2020 at 09:33:32.
BEGIN options
  SORBTION
END options

BEGIN griddata
  porosity
    CONSTANT       0.10000000
  bulk_density
    CONSTANT       1.00000000
  distcoef
    CONSTANT       0.10000000
END griddata

