# File generated by Flopy version 3.3.2 on 10/22/2020 at 09:30:22.
BEGIN options
END options

BEGIN timing
  TDIS6  ex-gwf-lgrv-gr.tdis
END timing

BEGIN models
  gwf6  parent.nam  parent
END models

BEGIN exchanges
END exchanges

BEGIN solutiongroup  1
  ims6  ex-gwf-lgrv-gr.ims  parent
END solutiongroup  1

