# File generated by Flopy version 3.3.3 on 02/18/2021 at 08:28:20.
BEGIN options
END options

BEGIN timing
  TDIS6  ex-gwf-lgrv-gr.tdis
END timing

BEGIN models
  gwf6  parent.nam  parent
END models

BEGIN exchanges
END exchanges

BEGIN solutiongroup  1
  ims6  ex-gwf-lgrv-gr.ims  parent
END solutiongroup  1

