# File generated by Flopy version 3.3.3 on 02/18/2021 at 08:31:23.
BEGIN options
  READASARRAYS
END options

BEGIN period  1
  recharge
    INTERNAL  FACTOR  1.0
    2.50000000E-10  1.00000000E-09       0.00000000       0.00000000       0.00000000       0.00000000       0.00000000       0.00000000       0.00000000       0.00000000
    1.00000000E-09  2.50000000E-10  1.00000000E-09       0.00000000       0.00000000  4.00000000E-09  4.00000000E-09  4.00000000E-09       0.00000000       0.00000000
         0.00000000  1.00000000E-09  2.50000000E-10  1.00000000E-09  1.00000000E-09  2.50000000E-10  2.50000000E-10  2.50000000E-10       0.00000000       0.00000000
    4.00000000E-09  2.50000000E-10  2.50000000E-10  2.50000000E-10  2.50000000E-10  2.50000000E-10  2.50000000E-10  2.50000000E-10  1.00000000E-09       0.00000000
    4.00000000E-09  2.50000000E-10  2.50000000E-10  2.50000000E-10  2.50000000E-10  2.50000000E-10  2.50000000E-10  2.50000000E-10  2.50000000E-10  2.50000000E-10
    1.00000000E-09  2.50000000E-10  2.50000000E-10  2.50000000E-10  2.50000000E-10  2.50000000E-10  2.50000000E-10  2.50000000E-10  2.50000000E-10  1.00000000E-09
    1.00000000E-09  2.50000000E-10  2.50000000E-10  2.50000000E-10  2.50000000E-10  2.50000000E-10  2.50000000E-10  2.50000000E-10  1.00000000E-09       0.00000000
         0.00000000  1.00000000E-09  2.50000000E-10  2.50000000E-10  2.50000000E-10  2.50000000E-10  2.50000000E-10  2.50000000E-10  1.00000000E-09       0.00000000
         0.00000000  1.00000000E-09  2.50000000E-10  2.50000000E-10  2.50000000E-10  2.50000000E-10  2.50000000E-10  2.50000000E-10  1.00000000E-09       0.00000000
         0.00000000  1.00000000E-09  2.50000000E-10  2.50000000E-10  2.50000000E-10  2.50000000E-10  2.50000000E-10  2.50000000E-10  2.50000000E-10  4.00000000E-09
         0.00000000  1.00000000E-09  2.50000000E-10  2.50000000E-10  2.50000000E-10  2.50000000E-10  2.50000000E-10  2.50000000E-10  1.00000000E-09       0.00000000
    1.00000000E-09  2.50000000E-10  2.50000000E-10  2.50000000E-10  2.50000000E-10  2.50000000E-10  2.50000000E-10  2.50000000E-10  1.00000000E-09       0.00000000
    2.50000000E-10  2.50000000E-10  2.50000000E-10  2.50000000E-10  2.50000000E-10  2.50000000E-10  2.50000000E-10  2.50000000E-10  1.00000000E-09       0.00000000
         0.00000000  2.50000000E-10  2.50000000E-10  2.50000000E-10  2.50000000E-10  2.50000000E-10  1.00000000E-09  1.00000000E-09  2.50000000E-10       0.00000000
         0.00000000       0.00000000  1.00000000E-09  1.00000000E-09  1.00000000E-09  1.00000000E-09       0.00000000       0.00000000       0.00000000       0.00000000
END period  1

