# File generated by Flopy version 3.3.2 on 10/22/2020 at 09:33:16.
BEGIN options
END options

BEGIN dimensions
  MAXBOUND  2
END dimensions

BEGIN period  1
  1 13 1     988.00000000       0.03800000
  1 14 9    1045.00000000       0.03800000
END period  1

