# File generated by Flopy version 3.3.2 on 10/22/2020 at 09:33:16.
BEGIN options
END options

BEGIN dimensions
  MAXBOUND  10
END dimensions

BEGIN period  2
  1 6 4     -10.00000000
  1 6 5     -10.00000000
  1 7 4     -10.00000000
  1 7 5     -10.00000000
  1 8 4     -10.00000000
  1 8 5     -10.00000000
  1 9 4     -10.00000000
  1 9 5     -10.00000000
  1 10 4     -10.00000000
  1 10 5     -10.00000000
END period  2

BEGIN period  3
  
END period  3

