# File generated by Flopy version 3.3.3 on 02/18/2021 at 08:31:55.
BEGIN options
  auxiliary  CONCENTRATION
  PRINT_INPUT
  PRINT_FLOWS
END options

BEGIN dimensions
  MAXBOUND  1
END dimensions

BEGIN period  1
  1 16 16       1.00000000    1000.00000000
END period  1

