# File generated by Flopy version 3.3.2 on 10/22/2020 at 09:33:40.
BEGIN options
  auxiliary  CONCENTRATION
  PRINT_INPUT
  PRINT_FLOWS
END options

BEGIN dimensions
  MAXBOUND  1
END dimensions

BEGIN period  1
  1 16 16       1.00000000    1000.00000000
END period  1

