# File generated by Flopy version 3.3.3 on 02/18/2021 at 08:31:55.
BEGIN options
END options

BEGIN dimensions
  MAXBOUND  1
END dimensions

BEGIN period  1
  1 1 1       0.00000000
END period  1

