# File generated by Flopy version 3.3.2 on 10/22/2020 at 09:33:40.
BEGIN options
END options

BEGIN dimensions
  MAXBOUND  1
END dimensions

BEGIN period  1
  1 1 1       0.00000000
END period  1

