# File generated by Flopy version 3.3.3 on 02/18/2021 at 08:31:55.
BEGIN options
END options

BEGIN griddata
  porosity
    CONSTANT       0.30000000
END griddata

