# File generated by Flopy version 3.3.3 on 02/18/2021 at 08:31:55.
BEGIN options
END options

BEGIN dimensions
  NLAY  1
  NROW  31
  NCOL  46
END dimensions

BEGIN griddata
  delr
    CONSTANT      10.00000000
  delc
    CONSTANT      10.00000000
  top
    CONSTANT       0.00000000
  botm
    CONSTANT     -10.00000000
  idomain
    CONSTANT  1
END griddata

