# File generated by Flopy version 3.3.3 on 02/18/2021 at 08:28:44.
BEGIN options
END options

BEGIN griddata
  icelltype
    CONSTANT  1
  k
    CONSTANT       1.00000000
END griddata

