# File generated by Flopy version 3.3.2 on 10/22/2020 at 09:30:44.
BEGIN options
END options

BEGIN griddata
  icelltype
    CONSTANT  1
  k
    CONSTANT       1.00000000
END griddata

