# File generated by Flopy version 3.3.3 on 02/18/2021 at 08:28:44.
BEGIN options
END options

BEGIN dimensions
  MAXBOUND  3
END dimensions

BEGIN period  1
  1 46 80      24.00000000
  1 47 80      24.00000000
  1 48 80      24.00000000
END period  1

