# File generated by Flopy version 3.3.2 on 10/22/2020 at 09:30:44.
BEGIN options
END options

BEGIN dimensions
  MAXBOUND  3
END dimensions

BEGIN period  1
  1 46 80      24.00000000
  1 47 80      24.00000000
  1 48 80      24.00000000
END period  1

