# File generated by Flopy version 3.3.2 on 10/22/2020 at 09:30:44.
BEGIN options
  HEAD  FILEOUT  ex-gwf-nwt-p03.hds
END options

BEGIN period  1
  SAVE  HEAD  ALL
END period  1

