# File generated by Flopy version 3.3.2 on 10/22/2020 at 09:30:44.
BEGIN options
  TIME_UNITS  days
END options

BEGIN dimensions
  NPER  1
END dimensions

BEGIN perioddata
     365.00000000  1       1.00000000
END perioddata

