# File generated by Flopy version 3.3.3 on 02/18/2021 at 08:28:44.
BEGIN options
  NEWTON  UNDER_RELAXATION
END options

BEGIN packages
  DIS6  ex-gwf-nwt-p03.dis  dis
  NPF6  ex-gwf-nwt-p03.npf  npf
  IC6  ex-gwf-nwt-p03.ic  ic
  CHD6  ex-gwf-nwt-p03.chd  chd_0
  RCH6  ex-gwf-nwt-p03.rcha  rcha
  OC6  ex-gwf-nwt-p03.oc  oc
END packages

