# File generated by Flopy version 3.3.3 on 02/18/2021 at 08:31:42.
BEGIN options
END options

BEGIN griddata
  porosity
    CONSTANT       0.10000000
END griddata

