# File generated by Flopy version 3.3.2 on 10/22/2020 at 09:33:32.
BEGIN options
  DIGITS  10
  PRINT_INPUT
END options

BEGIN continuous  FILEOUT  trans.obs.csv
  X005  CONCENTRATION  1 1 1
  X405  CONCENTRATION  1 1 41
  X1105  CONCENTRATION  1 1 111
END continuous  FILEOUT  trans.obs.csv

