# File generated by Flopy version 3.3.2 on 10/22/2020 at 09:33:32.
BEGIN options
  XT3D_OFF
END options

BEGIN griddata
  alh
    CONSTANT       0.10000000
  ath1
    CONSTANT       0.10000000
END griddata

