# File generated by Flopy version 3.3.2 on 10/22/2020 at 09:33:25.
BEGIN options
  BUDGET  FILEOUT  ex-gwf-whirl.cbc
  HEAD  FILEOUT  ex-gwf-whirl.hds
END options

BEGIN period  1
  SAVE  HEAD  ALL
  SAVE  BUDGET  ALL
END period  1

