# File generated by Flopy version 3.3.3 on 02/18/2021 at 08:31:34.
BEGIN options
  BUDGET  FILEOUT  ex-gwf-whirl.cbc
  HEAD  FILEOUT  ex-gwf-whirl.hds
END options

BEGIN period  1
  SAVE  HEAD  ALL
  SAVE  BUDGET  ALL
END period  1

