# File generated by Flopy version 3.3.3 on 02/18/2021 at 08:31:34.
BEGIN options
  SAVE_FLOWS
END options

BEGIN packages
  DIS6  ex-gwf-whirl.dis  dis
  NPF6  ex-gwf-whirl.npf  npf
  IC6  ex-gwf-whirl.ic  ic
  WEL6  ex-gwf-whirl.wel  wel
  OC6  ex-gwf-whirl.oc  oc
END packages

