# File generated by Flopy version 3.3.2 on 10/22/2020 at 09:33:25.
BEGIN options
END options

BEGIN timing
  TDIS6  ex-gwf-whirl.tdis
END timing

BEGIN models
  gwf6  ex-gwf-whirl.nam  ex-gwf-whirl
END models

BEGIN exchanges
END exchanges

BEGIN solutiongroup  1
  ims6  ex-gwf-whirl.ims  ex-gwf-whirl
END solutiongroup  1

