# File generated by Flopy version 3.3.3 on 02/18/2021 at 08:28:15.
BEGIN options
  PRINT_STAGE
  OBS6  FILEIN  ex-gwf-lak-p02.lak.obs
  MOVER
  TIME_CONVERSION   86400.00000000
  LENGTH_CONVERSION       3.28081000
END options

BEGIN dimensions
  NLAKES  2
  NOUTLETS  2
END dimensions

BEGIN packagedata
  1     130.00000000  57
  2     130.00000000  57
END packagedata

BEGIN connectiondata
  1  1  1 7 6  HORIZONTAL       0.10000000       0.00000000       0.00000000     500.00000000     500.00000000
  1  2  1 8 6  HORIZONTAL       0.10000000       0.00000000       0.00000000     500.00000000     500.00000000
  1  3  1 9 6  HORIZONTAL       0.10000000       0.00000000       0.00000000     500.00000000     500.00000000
  1  4  1 10 6  HORIZONTAL       0.10000000       0.00000000       0.00000000     500.00000000     500.00000000
  1  5  1 11 6  HORIZONTAL       0.10000000       0.00000000       0.00000000     500.00000000     500.00000000
  1  6  1 6 7  HORIZONTAL       0.10000000       0.00000000       0.00000000     500.00000000     500.00000000
  1  7  2 7 7  VERTICAL       0.10000000       0.00000000       0.00000000       0.00000000       0.00000000
  1  8  2 8 7  VERTICAL       0.10000000       0.00000000       0.00000000       0.00000000       0.00000000
  1  9  2 8 7  HORIZONTAL       0.10000000       0.00000000       0.00000000     250.00000000     500.00000000
  1  10  2 9 7  VERTICAL       0.10000000       0.00000000       0.00000000       0.00000000       0.00000000
  1  11  2 9 7  HORIZONTAL       0.10000000       0.00000000       0.00000000     250.00000000     500.00000000
  1  12  2 10 7  VERTICAL       0.10000000       0.00000000       0.00000000       0.00000000       0.00000000
  1  13  2 10 7  HORIZONTAL       0.10000000       0.00000000       0.00000000     250.00000000     500.00000000
  1  14  2 11 7  VERTICAL       0.10000000       0.00000000       0.00000000       0.00000000       0.00000000
  1  15  1 12 7  HORIZONTAL       0.10000000       0.00000000       0.00000000     500.00000000     500.00000000
  1  16  1 6 8  HORIZONTAL       0.10000000       0.00000000       0.00000000     500.00000000     500.00000000
  1  17  2 7 8  VERTICAL       0.10000000       0.00000000       0.00000000       0.00000000       0.00000000
  1  18  2 7 8  HORIZONTAL       0.10000000       0.00000000       0.00000000     250.00000000     500.00000000
  1  19  3 8 8  VERTICAL       0.10000000       0.00000000       0.00000000       0.00000000       0.00000000
  1  20  3 9 8  VERTICAL       0.10000000       0.00000000       0.00000000       0.00000000       0.00000000
  1  21  3 10 8  VERTICAL       0.10000000       0.00000000       0.00000000       0.00000000       0.00000000
  1  22  2 11 8  VERTICAL       0.10000000       0.00000000       0.00000000       0.00000000       0.00000000
  1  23  2 11 8  HORIZONTAL       0.10000000       0.00000000       0.00000000     250.00000000     500.00000000
  1  24  1 12 8  HORIZONTAL       0.10000000       0.00000000       0.00000000     500.00000000     500.00000000
  1  25  1 6 9  HORIZONTAL       0.10000000       0.00000000       0.00000000     500.00000000     500.00000000
  1  26  2 7 9  VERTICAL       0.10000000       0.00000000       0.00000000       0.00000000       0.00000000
  1  27  2 7 9  HORIZONTAL       0.10000000       0.00000000       0.00000000     250.00000000     500.00000000
  1  28  3 8 9  VERTICAL       0.10000000       0.00000000       0.00000000       0.00000000       0.00000000
  1  29  3 9 9  VERTICAL       0.10000000       0.00000000       0.00000000       0.00000000       0.00000000
  1  30  3 10 9  VERTICAL       0.10000000       0.00000000       0.00000000       0.00000000       0.00000000
  1  31  2 11 9  VERTICAL       0.10000000       0.00000000       0.00000000       0.00000000       0.00000000
  1  32  2 11 9  HORIZONTAL       0.10000000       0.00000000       0.00000000     250.00000000     500.00000000
  1  33  1 12 9  HORIZONTAL       0.10000000       0.00000000       0.00000000     500.00000000     500.00000000
  1  34  1 6 10  HORIZONTAL       0.10000000       0.00000000       0.00000000     500.00000000     500.00000000
  1  35  2 7 10  VERTICAL       0.10000000       0.00000000       0.00000000       0.00000000       0.00000000
  1  36  2 7 10  HORIZONTAL       0.10000000       0.00000000       0.00000000     250.00000000     500.00000000
  1  37  3 8 10  VERTICAL       0.10000000       0.00000000       0.00000000       0.00000000       0.00000000
  1  38  3 9 10  VERTICAL       0.10000000       0.00000000       0.00000000       0.00000000       0.00000000
  1  39  3 10 10  VERTICAL       0.10000000       0.00000000       0.00000000       0.00000000       0.00000000
  1  40  2 11 10  VERTICAL       0.10000000       0.00000000       0.00000000       0.00000000       0.00000000
  1  41  2 11 10  HORIZONTAL       0.10000000       0.00000000       0.00000000     250.00000000     500.00000000
  1  42  1 12 10  HORIZONTAL       0.10000000       0.00000000       0.00000000     500.00000000     500.00000000
  1  43  1 6 11  HORIZONTAL       0.10000000       0.00000000       0.00000000     500.00000000     500.00000000
  1  44  2 7 11  VERTICAL       0.10000000       0.00000000       0.00000000       0.00000000       0.00000000
  1  45  2 8 11  VERTICAL       0.10000000       0.00000000       0.00000000       0.00000000       0.00000000
  1  46  2 8 11  HORIZONTAL       0.10000000       0.00000000       0.00000000     250.00000000     500.00000000
  1  47  2 9 11  VERTICAL       0.10000000       0.00000000       0.00000000       0.00000000       0.00000000
  1  48  2 9 11  HORIZONTAL       0.10000000       0.00000000       0.00000000     250.00000000     500.00000000
  1  49  2 10 11  VERTICAL       0.10000000       0.00000000       0.00000000       0.00000000       0.00000000
  1  50  2 10 11  HORIZONTAL       0.10000000       0.00000000       0.00000000     250.00000000     500.00000000
  1  51  2 11 11  VERTICAL       0.10000000       0.00000000       0.00000000       0.00000000       0.00000000
  1  52  1 12 11  HORIZONTAL       0.10000000       0.00000000       0.00000000     500.00000000     500.00000000
  1  53  1 7 12  HORIZONTAL       0.10000000       0.00000000       0.00000000     500.00000000     500.00000000
  1  54  1 8 12  HORIZONTAL       0.10000000       0.00000000       0.00000000     500.00000000     500.00000000
  1  55  1 9 12  HORIZONTAL       0.10000000       0.00000000       0.00000000     500.00000000     500.00000000
  1  56  1 10 12  HORIZONTAL       0.10000000       0.00000000       0.00000000     500.00000000     500.00000000
  1  57  1 11 12  HORIZONTAL       0.10000000       0.00000000       0.00000000     500.00000000     500.00000000
  2  1  1 17 6  HORIZONTAL       0.10000000       0.00000000       0.00000000     500.00000000     500.00000000
  2  2  1 18 6  HORIZONTAL       0.10000000       0.00000000       0.00000000     500.00000000     500.00000000
  2  3  1 19 6  HORIZONTAL       0.10000000       0.00000000       0.00000000     500.00000000     500.00000000
  2  4  1 20 6  HORIZONTAL       0.10000000       0.00000000       0.00000000     500.00000000     500.00000000
  2  5  1 21 6  HORIZONTAL       0.10000000       0.00000000       0.00000000     500.00000000     500.00000000
  2  6  1 16 7  HORIZONTAL       0.10000000       0.00000000       0.00000000     500.00000000     500.00000000
  2  7  2 17 7  VERTICAL       0.10000000       0.00000000       0.00000000       0.00000000       0.00000000
  2  8  2 18 7  VERTICAL       0.10000000       0.00000000       0.00000000       0.00000000       0.00000000
  2  9  2 18 7  HORIZONTAL       0.10000000       0.00000000       0.00000000     250.00000000     500.00000000
  2  10  2 19 7  VERTICAL       0.10000000       0.00000000       0.00000000       0.00000000       0.00000000
  2  11  2 19 7  HORIZONTAL       0.10000000       0.00000000       0.00000000     250.00000000     500.00000000
  2  12  2 20 7  VERTICAL       0.10000000       0.00000000       0.00000000       0.00000000       0.00000000
  2  13  2 20 7  HORIZONTAL       0.10000000       0.00000000       0.00000000     250.00000000     500.00000000
  2  14  2 21 7  VERTICAL       0.10000000       0.00000000       0.00000000       0.00000000       0.00000000
  2  15  1 22 7  HORIZONTAL       0.10000000       0.00000000       0.00000000     500.00000000     500.00000000
  2  16  1 16 8  HORIZONTAL       0.10000000       0.00000000       0.00000000     500.00000000     500.00000000
  2  17  2 17 8  VERTICAL       0.10000000       0.00000000       0.00000000       0.00000000       0.00000000
  2  18  2 17 8  HORIZONTAL       0.10000000       0.00000000       0.00000000     250.00000000     500.00000000
  2  19  3 18 8  VERTICAL       0.10000000       0.00000000       0.00000000       0.00000000       0.00000000
  2  20  3 19 8  VERTICAL       0.10000000       0.00000000       0.00000000       0.00000000       0.00000000
  2  21  3 20 8  VERTICAL       0.10000000       0.00000000       0.00000000       0.00000000       0.00000000
  2  22  2 21 8  VERTICAL       0.10000000       0.00000000       0.00000000       0.00000000       0.00000000
  2  23  2 21 8  HORIZONTAL       0.10000000       0.00000000       0.00000000     250.00000000     500.00000000
  2  24  1 22 8  HORIZONTAL       0.10000000       0.00000000       0.00000000     500.00000000     500.00000000
  2  25  1 16 9  HORIZONTAL       0.10000000       0.00000000       0.00000000     500.00000000     500.00000000
  2  26  2 17 9  VERTICAL       0.10000000       0.00000000       0.00000000       0.00000000       0.00000000
  2  27  2 17 9  HORIZONTAL       0.10000000       0.00000000       0.00000000     250.00000000     500.00000000
  2  28  3 18 9  VERTICAL       0.10000000       0.00000000       0.00000000       0.00000000       0.00000000
  2  29  3 19 9  VERTICAL       0.10000000       0.00000000       0.00000000       0.00000000       0.00000000
  2  30  3 20 9  VERTICAL       0.10000000       0.00000000       0.00000000       0.00000000       0.00000000
  2  31  2 21 9  VERTICAL       0.10000000       0.00000000       0.00000000       0.00000000       0.00000000
  2  32  2 21 9  HORIZONTAL       0.10000000       0.00000000       0.00000000     250.00000000     500.00000000
  2  33  1 22 9  HORIZONTAL       0.10000000       0.00000000       0.00000000     500.00000000     500.00000000
  2  34  1 16 10  HORIZONTAL       0.10000000       0.00000000       0.00000000     500.00000000     500.00000000
  2  35  2 17 10  VERTICAL       0.10000000       0.00000000       0.00000000       0.00000000       0.00000000
  2  36  2 17 10  HORIZONTAL       0.10000000       0.00000000       0.00000000     250.00000000     500.00000000
  2  37  3 18 10  VERTICAL       0.10000000       0.00000000       0.00000000       0.00000000       0.00000000
  2  38  3 19 10  VERTICAL       0.10000000       0.00000000       0.00000000       0.00000000       0.00000000
  2  39  3 20 10  VERTICAL       0.10000000       0.00000000       0.00000000       0.00000000       0.00000000
  2  40  2 21 10  VERTICAL       0.10000000       0.00000000       0.00000000       0.00000000       0.00000000
  2  41  2 21 10  HORIZONTAL       0.10000000       0.00000000       0.00000000     250.00000000     500.00000000
  2  42  1 22 10  HORIZONTAL       0.10000000       0.00000000       0.00000000     500.00000000     500.00000000
  2  43  1 16 11  HORIZONTAL       0.10000000       0.00000000       0.00000000     500.00000000     500.00000000
  2  44  2 17 11  VERTICAL       0.10000000       0.00000000       0.00000000       0.00000000       0.00000000
  2  45  2 18 11  VERTICAL       0.10000000       0.00000000       0.00000000       0.00000000       0.00000000
  2  46  2 18 11  HORIZONTAL       0.10000000       0.00000000       0.00000000     250.00000000     500.00000000
  2  47  2 19 11  VERTICAL       0.10000000       0.00000000       0.00000000       0.00000000       0.00000000
  2  48  2 19 11  HORIZONTAL       0.10000000       0.00000000       0.00000000     250.00000000     500.00000000
  2  49  2 20 11  VERTICAL       0.10000000       0.00000000       0.00000000       0.00000000       0.00000000
  2  50  2 20 11  HORIZONTAL       0.10000000       0.00000000       0.00000000     250.00000000     500.00000000
  2  51  2 21 11  VERTICAL       0.10000000       0.00000000       0.00000000       0.00000000       0.00000000
  2  52  1 22 11  HORIZONTAL       0.10000000       0.00000000       0.00000000     500.00000000     500.00000000
  2  53  1 17 12  HORIZONTAL       0.10000000       0.00000000       0.00000000     500.00000000     500.00000000
  2  54  1 18 12  HORIZONTAL       0.10000000       0.00000000       0.00000000     500.00000000     500.00000000
  2  55  1 19 12  HORIZONTAL       0.10000000       0.00000000       0.00000000     500.00000000     500.00000000
  2  56  1 20 12  HORIZONTAL       0.10000000       0.00000000       0.00000000     500.00000000     500.00000000
  2  57  1 21 12  HORIZONTAL       0.10000000       0.00000000       0.00000000     500.00000000     500.00000000
END connectiondata

BEGIN outlets
  1  1  0  manning     114.85000000       5.00000000       0.05000000  8.20632442E-04
  2  2  0  manning     109.42860000       5.00000000       0.05000000  9.45819716E-04
END outlets

BEGIN period  1
  1  rainfall  0.0116
  1  evaporation  0.0103
  2  rainfall  0.0116
  2  evaporation  0.0103
END period  1

