# File generated by Flopy version 3.3.2 on 10/22/2020 at 09:30:18.
BEGIN options
END options

BEGIN continuous  FILEOUT  ex-gwf-lak-p02.gwf.obs.csv
  A  head  1 4 4
  B  head  1 14 9
  C  head  1 24 14
END continuous  FILEOUT  ex-gwf-lak-p02.gwf.obs.csv

