# File generated by Flopy version 3.3.2 on 10/22/2020 at 09:30:18.
BEGIN options
  TIME_UNITS  days
END options

BEGIN dimensions
  NPER  1
END dimensions

BEGIN perioddata
    1500.00000000  200       1.00500000
END perioddata

