# File generated by Flopy version 3.3.2 on 10/22/2020 at 09:30:18.
BEGIN options
  BUDGET  FILEOUT  ex-gwf-lak-p02.cbc
  HEAD  FILEOUT  ex-gwf-lak-p02.hds
END options

BEGIN period  1
  SAVE  HEAD  LAST
  SAVE  BUDGET  LAST
END period  1

