# File generated by Flopy version 3.3.3 on 02/18/2021 at 08:28:15.
BEGIN griddata
  strt
    CONSTANT     115.00000000
END griddata

