# File generated by Flopy version 3.3.3 on 02/18/2021 at 08:28:15.
BEGIN options
  TIME_UNITS  days
END options

BEGIN dimensions
  NPER  1
END dimensions

BEGIN perioddata
    1500.00000000  200       1.00500000
END perioddata

