# File generated by Flopy version 3.3.3 on 02/18/2021 at 08:28:15.
BEGIN options
  BUDGET  FILEOUT  ex-gwf-lak-p02.cbc
  HEAD  FILEOUT  ex-gwf-lak-p02.hds
END options

BEGIN period  1
  SAVE  HEAD  LAST
  SAVE  BUDGET  LAST
END period  1

