# File generated by Flopy version 3.3.3 on 02/18/2021 at 08:32:13.
BEGIN options
  LENGTH_UNITS  m
END options

BEGIN dimensions
  NLAY  1
  NROW  1
  NCOL  401
END dimensions

BEGIN griddata
  delr
    CONSTANT       2.50000000
  delc
    CONSTANT       1.00000000
  top
    CONSTANT       1.00000000
  botm
    CONSTANT       0.00000000
END griddata

