# File generated by Flopy version 3.3.2 on 10/22/2020 at 09:33:56.
BEGIN options
  SORBTION
  ZERO_ORDER_DECAY
END options

BEGIN griddata
  thetaim
    CONSTANT       0.05000000
  zetaim
    CONSTANT       0.00100000
  decay
    CONSTANT       0.00000000
  decay_sorbed
    CONSTANT      -0.00100000
  bulk_density
    CONSTANT       4.00000000
  distcoef
    CONSTANT       0.25000000
END griddata

