# File generated by Flopy version 3.3.3 on 02/18/2021 at 08:31:53.
BEGIN options
  BUDGET  FILEOUT  trans.cbc
  CONCENTRATION  FILEOUT  trans.ucn
END options

BEGIN period  1
  SAVE  CONCENTRATION  ALL
  SAVE  BUDGET  LAST
  PRINT  CONCENTRATION  LAST
  PRINT  BUDGET  LAST
END period  1

