# File generated by Flopy version 3.3.3 on 02/18/2021 at 08:31:53.
BEGIN options
END options

BEGIN griddata
  porosity
    CONSTANT       0.37000000
  bulk_density
    CONSTANT       1.58700000
END griddata

