# File generated by Flopy version 3.3.3 on 02/18/2021 at 08:31:53.
BEGIN options
  PRINT_OPTION  summary
END options

BEGIN nonlinear
  OUTER_DVCLOSE  1.00000000E-08
END nonlinear

BEGIN linear
  INNER_DVCLOSE  1.00000000E-08
  LINEAR_ACCELERATION  bicgstab
END linear

