# File generated by Flopy version 3.3.3 on 02/18/2021 at 08:31:53.
BEGIN options
END options

BEGIN griddata
  thetaim
    CONSTANT       1.58700000
  zetaim
    CONSTANT      20.00000000
END griddata

