# File generated by Flopy version 3.3.3 on 02/18/2021 at 08:31:42.
BEGIN options
  LENGTH_UNITS  cm
END options

BEGIN dimensions
  NLAY  1
  NROW  1
  NCOL  122
END dimensions

BEGIN griddata
  delr
    CONSTANT       0.10000000
  delc
    CONSTANT       0.10000000
  top
    CONSTANT       1.00000000
  botm
    CONSTANT       0.00000000
END griddata

