# File generated by Flopy version 3.3.2 on 10/22/2020 at 09:33:32.
BEGIN options
  LENGTH_UNITS  cm
END options

BEGIN dimensions
  NLAY  1
  NROW  1
  NCOL  122
END dimensions

BEGIN griddata
  delr
    CONSTANT       0.10000000
  delc
    CONSTANT       0.10000000
  top
    CONSTANT       1.00000000
  botm
    CONSTANT       0.00000000
END griddata

