# File generated by Flopy version 3.3.2 on 10/22/2020 at 09:31:41.
BEGIN options
  BUDGET  FILEOUT  ex-gwf-sagehen.bud
  HEAD  FILEOUT  ex-gwf-sagehen.hds
  HEAD  PRINT_FORMAT  COLUMNS  10  WIDTH  15  DIGITS  6  GENERAL
END options

BEGIN period  1
  SAVE  HEAD  LAST
  SAVE  BUDGET  LAST
  PRINT  HEAD  LAST
  PRINT  BUDGET  LAST
END period  1

