# File generated by Flopy version 3.3.2 on 10/22/2020 at 09:31:41.
BEGIN options
END options

BEGIN dimensions
  MAXBOUND  3
END dimensions

BEGIN period  1
  1 43 80    1925.00000000
  1 44 80    1925.00000000
  1 45 80    1925.00000000
END period  1

