# File generated by Flopy version 3.3.3 on 02/18/2021 at 08:29:46.
BEGIN options
END options

BEGIN dimensions
  MAXBOUND  3
END dimensions

BEGIN period  1
  1 43 80    1925.00000000
  1 44 80    1925.00000000
  1 45 80    1925.00000000
END period  1

