# File generated by Flopy version 3.3.3 on 02/18/2021 at 08:29:46.
BEGIN options
END options

BEGIN timing
  TDIS6  ex-gwf-sagehen.tdis
END timing

BEGIN models
  gwf6  ex-gwf-sagehen.nam  ex-gwf-sagehen
END models

BEGIN exchanges
END exchanges

BEGIN solutiongroup  1
  ims6  ex-gwf-sagehen.ims  ex-gwf-sagehen
END solutiongroup  1

