# File generated by Flopy version 3.3.2 on 10/22/2020 at 09:29:58.
BEGIN griddata
  strt
    CONSTANT       7.50000000
END griddata

