# File generated by Flopy version 3.3.3 on 02/18/2021 at 08:27:51.
BEGIN options
  REWET  wetfct       1.00000000  iwetit  1  ihdwet  0
  SAVE_SPECIFIC_DISCHARGE
END options

BEGIN griddata
  icelltype
    CONSTANT  1
  k
    CONSTANT       1.00000000
  wetdry
    CONSTANT       2.00000000
END griddata

