# File generated by Flopy version 3.3.3 on 02/18/2021 at 08:28:09.
BEGIN options
  TS6  FILEIN  ex-gwf-fhb.wel.ts
END options

BEGIN dimensions
  MAXBOUND  1
END dimensions

BEGIN period  1
  1 2 1  FLOWRATE
END period  1

