# File generated by Flopy version 3.3.2 on 10/22/2020 at 09:30:13.
BEGIN options
  TS6  FILEIN  ex-gwf-fhb.wel.ts
END options

BEGIN dimensions
  MAXBOUND  1
END dimensions

BEGIN period  1
  1 2 1  FLOWRATE
END period  1

