# File generated by Flopy version 3.3.3 on 02/18/2021 at 08:28:09.
BEGIN options
  TS6  FILEIN  ex-gwf-fhb.chd.ts
END options

BEGIN dimensions
  MAXBOUND  3
END dimensions

BEGIN period  1
  1 1 10  CHDHEAD
  1 2 10  CHDHEAD
  1 3 10  CHDHEAD
END period  1

