# File generated by Flopy version 3.3.2 on 10/22/2020 at 09:30:13.
BEGIN options
  TIME_UNITS  days
END options

BEGIN dimensions
  NPER  3
END dimensions

BEGIN perioddata
     400.00000000  10       1.00000000
     200.00000000  4       1.00000000
     400.00000000  6       1.00000000
END perioddata

