# File generated by Flopy version 3.3.2 on 10/22/2020 at 09:30:13.
BEGIN options
  TS6  FILEIN  ex-gwf-fhb.chd.ts
END options

BEGIN dimensions
  MAXBOUND  3
END dimensions

BEGIN period  1
  1 1 10  CHDHEAD
  1 2 10  CHDHEAD
  1 3 10  CHDHEAD
END period  1

