# File generated by Flopy version 3.3.2 on 10/22/2020 at 09:33:56.
BEGIN options
  ZERO_ORDER_DECAY
END options

BEGIN griddata
  porosity
    CONSTANT       0.20000000
  decay
    CONSTANT      -0.00100000
  decay_sorbed
    CONSTANT       0.00000000
  bulk_density
    CONSTANT       4.00000000
  distcoef
    CONSTANT       0.00000000
END griddata

