# File generated by Flopy version 3.3.2 on 10/22/2020 at 09:33:56.
BEGIN options
  DIGITS  10
  PRINT_INPUT
END options

BEGIN continuous  FILEOUT  trans.obs.csv
  myobs  CONCENTRATION  1 1 82
END continuous  FILEOUT  trans.obs.csv

