# File generated by Flopy version 3.3.2 on 10/22/2020 at 09:29:55.
BEGIN griddata
  strt
    CONSTANT      50.00000000
END griddata

