# File generated by Flopy version 3.3.2 on 10/22/2020 at 09:29:55.
BEGIN options
  BUDGET  FILEOUT  ex-gwf-advtidal.cbc
  HEAD  FILEOUT  ex-gwf-advtidal.hds
END options

BEGIN period  1
  SAVE  HEAD  ALL
  SAVE  BUDGET  ALL
END period  1

