# File generated by Flopy version 3.3.3 on 02/18/2021 at 08:28:42.
BEGIN options
END options

BEGIN timing
  TDIS6  ex-gwf-nwt-p02.tdis
END timing

BEGIN models
  gwf6  ex-gwf-nwt-p02.nam  ex-gwf-nwt-p02
END models

BEGIN exchanges
END exchanges

BEGIN solutiongroup  1
  ims6  ex-gwf-nwt-p02.ims  ex-gwf-nwt-p02
END solutiongroup  1

