# File generated by Flopy version 3.3.3 on 02/18/2021 at 08:32:27.
BEGIN griddata
  strt  LAYERED
    INTERNAL  FACTOR  1.0
           1.62500000       1.62500000       1.62500000       1.62500000       1.62500000       1.62500000       1.62500000       1.62500000       1.62500000       1.62500000       1.62500000       1.62500000       1.62500000       1.62500000       1.62500000       1.62500000       1.62500000       1.62500000       1.62500000       1.62500000
           1.62500000       1.62500000       1.62500000       1.62500000       1.62500000       1.62500000       1.62500000       1.62500000       1.62500000       1.62500000       1.62500000       1.62500000       1.62500000       1.62500000       1.62500000       1.62500000       1.62500000       1.62500000       1.62500000       1.62500000
    INTERNAL  FACTOR  1.0
           1.62500000       1.62500000       1.62500000       1.62500000       1.62500000       1.62500000       1.62500000       1.62500000       1.62500000       1.62500000       1.62500000       1.62500000       1.62500000       1.62500000       1.62500000       1.62500000       1.62500000       1.62500000       1.62500000       1.62500000
           1.62500000       1.62500000       1.62500000       1.62500000       1.62500000       1.62500000       1.62500000       1.62500000       1.62500000       1.62500000       1.62500000       1.62500000       1.62500000       1.62500000       1.62500000       1.62500000       1.62500000       1.62500000       1.62500000       1.62500000
    INTERNAL  FACTOR  1.0
           1.62500000       1.62500000       1.62500000       1.62500000       1.62500000       1.62500000       1.62500000       1.62500000       1.62500000       1.62500000       1.62500000       1.62500000       1.62500000       1.62500000       1.62500000       1.62500000       1.62500000       1.62500000       1.62500000       1.62500000
           1.62500000       1.62500000       1.62500000       1.62500000       1.62500000       1.62500000       1.62500000       1.62500000       1.62500000       1.62500000       1.62500000       1.62500000       1.62500000       1.62500000       1.62500000       1.62500000       1.62500000       1.62500000       1.62500000       1.62500000
    INTERNAL  FACTOR  1.0
           1.62500000       1.62500000       1.62500000       1.62500000       1.62500000       1.62500000       1.62500000       1.62500000       1.62500000       1.62500000       1.62500000       1.62500000       1.62500000       1.62500000       1.62500000       1.62500000       1.62500000       1.62500000       1.62500000       1.62500000
           1.62500000       1.62500000       1.62500000       1.62500000       1.62500000       1.62500000       1.62500000       1.62500000       1.62500000       1.62500000       1.62500000       1.62500000       1.62500000       1.62500000       1.62500000       1.62500000       1.62500000       1.62500000       1.62500000       1.62500000
    INTERNAL  FACTOR  1.0
           1.62500000       1.62500000       1.62500000       1.62500000       1.62500000       1.62500000       1.62500000       1.62500000       1.62500000       1.62500000       1.62500000       1.62500000       1.62500000       1.62500000       1.62500000       1.62500000       1.62500000       1.62500000       1.62500000       1.62500000
           1.62500000       1.62500000       1.62500000       1.62500000       1.62500000       1.62500000       1.62500000       1.62500000       1.62500000       1.62500000       1.62500000       1.62500000       1.62500000       1.62500000       1.62500000       1.62500000       1.62500000       1.62500000       1.62500000       1.62500000
    INTERNAL  FACTOR  1.0
           1.62500000       1.62500000       1.62500000       1.62500000       1.62500000       1.62500000       1.62500000       1.62500000       1.62500000       1.62500000       1.62500000       1.62500000       1.62500000       1.62500000       1.62500000       1.62500000       1.62500000       1.62500000       1.62500000       1.62500000
           1.62500000       1.62500000       1.62500000       1.62500000       1.62500000       1.62500000       1.62500000       1.62500000       1.62500000       1.62500000       1.62500000       1.62500000       1.62500000       1.62500000       1.62500000       1.62500000       1.62500000       1.62500000       1.62500000       1.62500000
    INTERNAL  FACTOR  1.0
           1.62500000       1.62500000       1.62500000       1.62500000       1.62500000       1.62500000       1.62500000       1.62500000       1.62500000       1.62500000       1.62500000       1.62500000       1.62500000       1.62500000       1.62500000       1.62500000       1.62500000       1.62500000       1.62500000       1.62500000
           1.62500000       1.62500000       1.62500000       1.62500000       1.62500000       1.62500000       1.62500000       1.62500000       1.62500000       1.62500000       1.62500000       1.62500000       1.62500000       1.62500000       1.62500000       1.62500000       1.62500000       1.62500000       1.62500000       1.62500000
    INTERNAL  FACTOR  1.0
           1.62500000       1.62500000       1.62500000       1.62500000       1.62500000       1.62500000       1.62500000       1.62500000       1.62500000       1.62500000       1.62500000       1.62500000       1.62500000       1.62500000       1.62500000       1.62500000       1.62500000       1.62500000       1.62500000       1.62500000
           1.62500000       1.62500000       1.62500000       1.62500000       1.62500000       1.62500000       1.62500000       1.62500000       1.62500000       1.62500000       1.62500000       1.62500000       1.62500000       1.62500000       1.62500000       1.62500000       1.62500000       1.62500000       1.62500000       1.62500000
    INTERNAL  FACTOR  1.0
           1.62500000       1.62500000       1.62500000       1.62500000       1.62500000       1.62500000       1.62500000       1.62500000       1.62500000       1.62500000       1.62500000       1.62500000       1.62500000       1.62500000       1.62500000       1.62500000       1.62500000       1.62500000       1.62500000       1.62500000
           1.62500000       1.62500000       1.62500000       1.62500000       1.62500000       1.62500000       1.62500000       1.62500000       1.62500000       1.62500000       1.62500000       1.62500000       1.62500000       1.62500000       1.62500000       1.62500000       1.62500000       1.62500000       1.62500000       1.62500000
    INTERNAL  FACTOR  1.0
           1.62500000       1.62500000       1.62500000       1.62500000       1.62500000       1.62500000       1.62500000       1.62500000       1.62500000       1.62500000       1.62500000       1.62500000       1.62500000       1.62500000       1.62500000       1.62500000       1.62500000       1.62500000       1.62500000       1.62500000
           1.62500000       1.62500000       1.62500000       1.62500000       1.62500000       1.62500000       1.62500000       1.62500000       1.62500000       1.62500000       1.62500000       1.62500000       1.62500000       1.62500000       1.62500000       1.62500000       1.62500000       1.62500000       1.62500000       1.62500000
    INTERNAL  FACTOR  1.0
           1.62500000       1.62500000       1.62500000       1.62500000       1.62500000       1.62500000       1.62500000       1.62500000       1.62500000       1.62500000       1.62500000       1.62500000       1.62500000       1.62500000       1.62500000       1.62500000       1.62500000       1.62500000       1.62500000       1.62500000
           1.62500000       1.62500000       1.62500000       1.62500000       1.62500000       1.62500000       1.62500000       1.62500000       1.62500000       1.62500000       1.62500000       1.62500000       1.62500000       1.62500000       1.62500000       1.62500000       1.62500000       1.62500000       1.62500000       1.62500000
    INTERNAL  FACTOR  1.0
           1.62500000       1.62500000       1.62500000       1.62500000       1.62500000       1.62500000       1.62500000       1.62500000       1.62500000       1.62500000       1.62500000       1.62500000       1.62500000       1.62500000       1.62500000       1.62500000       1.62500000       1.62500000       1.62500000       1.62500000
           1.62500000       1.62500000       1.62500000       1.62500000       1.62500000       1.62500000       1.62500000       1.62500000       1.62500000       1.62500000       1.62500000       1.62500000       1.62500000       1.62500000       1.62500000       1.62500000       1.62500000       1.62500000       1.62500000       1.62500000
    INTERNAL  FACTOR  1.0
           1.62500000       1.62500000       1.62500000       1.62500000       1.62500000       1.62500000       1.62500000       1.62500000       1.62500000       1.62500000       1.62500000       1.62500000       1.62500000       1.62500000       1.62500000       1.62500000       1.62500000       1.62500000       1.62500000       1.62500000
           1.62500000       1.62500000       1.62500000       1.62500000       1.62500000       1.62500000       1.62500000       1.62500000       1.62500000       1.62500000       1.62500000       1.62500000       1.62500000       1.62500000       1.62500000       1.62500000       1.62500000       1.62500000       1.62500000       1.62500000
    INTERNAL  FACTOR  1.0
           1.62500000       1.62500000       1.62500000       1.62500000       1.62500000       1.62500000       1.62500000       1.62500000       1.62500000       1.62500000       1.62500000       1.62500000       1.62500000       1.62500000       1.62500000       1.62500000       1.62500000       1.62500000       1.62500000       1.62500000
           1.62500000       1.62500000       1.62500000       1.62500000       1.62500000       1.62500000       1.62500000       1.62500000       1.62500000       1.62500000       1.62500000       1.62500000       1.62500000       1.62500000       1.62500000       1.62500000       1.62500000       1.62500000       1.62500000       1.62500000
    INTERNAL  FACTOR  1.0
           1.62500000       1.62500000       1.62500000       1.62500000       1.62500000       1.62500000       1.62500000       1.62500000       1.62500000       1.62500000       1.62500000       1.62500000       1.62500000       1.62500000       1.62500000       1.62500000       1.62500000       1.62500000       1.62500000       1.62500000
           1.62500000       1.62500000       1.62500000       1.62500000       1.62500000       1.62500000       1.62500000       1.62500000       1.62500000       1.62500000       1.62500000       1.62500000       1.62500000       1.62500000       1.62500000       1.62500000       1.62500000       1.62500000       1.62500000       1.62500000
    INTERNAL  FACTOR  1.0
           1.62500000       1.62500000       1.62500000       1.62500000       1.62500000       1.62500000       1.62500000       1.62500000       1.62500000       1.62500000       1.62500000       1.62500000       1.62500000       1.62500000       1.62500000       1.62500000       1.62500000       1.62500000       1.62500000       1.62500000
           1.62500000       1.62500000       1.62500000       1.62500000       1.62500000       1.62500000       1.62500000       1.62500000       1.62500000       1.62500000       1.62500000       1.62500000       1.62500000       1.62500000       1.62500000       1.62500000       1.62500000       1.62500000       1.62500000       1.62500000
    INTERNAL  FACTOR  1.0
           1.62500000       1.62500000       1.62500000       1.62500000       1.62500000       1.62500000       1.62500000       1.62500000       1.62500000       1.62500000       1.62500000       1.62500000       1.62500000       1.62500000       1.62500000       1.62500000       1.62500000       1.62500000       1.62500000       1.62500000
           1.62500000       1.62500000       1.62500000       1.62500000       1.62500000       1.62500000       1.62500000       1.62500000       1.62500000       1.62500000       1.62500000       1.62500000       1.62500000       1.62500000       1.62500000       1.62500000       1.62500000       1.62500000       1.62500000       1.62500000
    INTERNAL  FACTOR  1.0
           1.62500000       1.62500000       1.62500000       1.62500000       1.62500000       1.62500000       1.62500000       1.62500000       1.62500000       1.62500000       1.62500000       1.62500000       1.62500000       1.62500000       1.62500000       1.62500000       1.62500000       1.62500000       1.62500000       1.62500000
           1.62500000       1.62500000       1.62500000       1.62500000       1.62500000       1.62500000       1.62500000       1.62500000       1.62500000       1.62500000       1.62500000       1.62500000       1.62500000       1.62500000       1.62500000       1.62500000       1.62500000       1.62500000       1.62500000       1.62500000
    INTERNAL  FACTOR  1.0
           1.62500000       1.62500000       1.62500000       1.62500000       1.62500000       1.62500000       1.62500000       1.62500000       1.62500000       1.62500000       1.62500000       1.62500000       1.62500000       1.62500000       1.62500000       1.62500000       1.62500000       1.62500000       1.62500000       1.62500000
           1.62500000       1.62500000       1.62500000       1.62500000       1.62500000       1.62500000       1.62500000       1.62500000       1.62500000       1.62500000       1.62500000       1.62500000       1.62500000       1.62500000       1.62500000       1.62500000       1.62500000       1.62500000       1.62500000       1.62500000
    INTERNAL  FACTOR  1.0
           1.62500000       1.62500000       1.62500000       1.62500000       1.62500000       1.62500000       1.62500000       1.62500000       1.62500000       1.62500000       1.62500000       1.62500000       1.62500000       1.62500000       1.62500000       1.62500000       1.62500000       1.62500000       1.62500000       1.62500000
           1.62500000       1.62500000       1.62500000       1.62500000       1.62500000       1.62500000       1.62500000       1.62500000       1.62500000       1.62500000       1.62500000       1.62500000       1.62500000       1.62500000       1.62500000       1.62500000       1.62500000       1.62500000       1.62500000       1.62500000
END griddata

