# File generated by Flopy version 3.3.3 on 02/18/2021 at 08:32:27.
BEGIN options
END options

BEGIN griddata
  alh
    CONSTANT       0.50000000
  ath1
    CONSTANT       0.20000000
  atv
    CONSTANT       0.20000000
END griddata

