# File generated by Flopy version 3.3.3 on 02/18/2021 at 08:27:49.
BEGIN options
END options

BEGIN dimensions
  MAXBOUND  2
END dimensions

BEGIN period  2
  2 3 4  -35000.00000000
  2 8 4  -35000.00000000
END period  2

