# File generated by Flopy version 3.3.2 on 10/22/2020 at 09:29:56.
BEGIN options
END options

BEGIN dimensions
  MAXBOUND  2
END dimensions

BEGIN period  2
  2 3 4  -35000.00000000
  2 8 4  -35000.00000000
END period  2

