# File generated by Flopy version 3.3.3 on 02/18/2021 at 08:27:49.
BEGIN options
  SAVE_SPECIFIC_DISCHARGE
END options

BEGIN griddata
  icelltype  LAYERED
    CONSTANT  1
    CONSTANT  0
  k  LAYERED
    CONSTANT      10.00000000
    CONSTANT       5.00000000
  k33
    CONSTANT       0.10000000
END griddata

