# File generated by Flopy version 3.3.3 on 02/18/2021 at 08:27:49.
BEGIN options
  READASARRAYS
END options

BEGIN period  1
  recharge
    CONSTANT       0.00400000
END period  1

