# File generated by Flopy version 3.3.2 on 10/22/2020 at 09:29:56.
BEGIN options
END options

BEGIN nonlinear
  OUTER_DVCLOSE  1.00000000E-06
  OUTER_MAXIMUM  500
END nonlinear

BEGIN linear
  INNER_MAXIMUM  100
  INNER_DVCLOSE  1.00000000E-06
  inner_rclose       0.00100000  strict
  LINEAR_ACCELERATION  bicgstab
  RELAXATION_FACTOR       0.97000000
END linear

