# File generated by Flopy version 3.3.3 on 02/18/2021 at 08:28:44.
BEGIN options
  HEAD  FILEOUT  ex-gwf-nwt-p03.hds
END options

BEGIN period  1
  SAVE  HEAD  ALL
END period  1

