# File generated by Flopy version 3.3.2 on 10/22/2020 at 09:33:32.
BEGIN options
  auxiliary  CONCENTRATION
END options

BEGIN dimensions
  MAXBOUND  1
END dimensions

BEGIN period  1
  1 1 1       0.00100000       1.00000000
END period  1

