# File generated by Flopy version 3.3.3 on 02/18/2021 at 08:32:25.
BEGIN options
  TIME_UNITS  seconds
END options

BEGIN dimensions
  NPER  1
END dimensions

BEGIN perioddata
   24000.00000000  400       1.00000000
END perioddata

