# File generated by Flopy version 3.3.3 on 02/18/2021 at 08:32:25.
BEGIN griddata
  strt
    CONSTANT  8.40000000E-05
END griddata

