# File generated by Flopy version 3.3.3 on 02/18/2021 at 08:32:25.
BEGIN options
END options

BEGIN dimensions
  MAXBOUND  67
END dimensions

BEGIN period  1
  1 1 1  1.09920675E-04
  1 1 2  1.10005538E-04
  1 1 3  1.09989441E-04
  1 1 4  1.10065766E-04
  1 1 5  1.09964384E-04
  1 1 6  1.09896423E-04
  1 1 7  1.10129869E-04
  1 1 8  1.10067364E-04
  1 1 9  1.10039820E-04
  1 1 10  1.10101064E-04
  1 1 11  1.10033636E-04
  1 1 12  1.10040933E-04
  1 1 13  1.10054006E-04
  1 1 14  1.10090898E-04
  1 1 15  1.09915241E-04
  1 1 16  1.09898954E-04
  1 1 17  1.09925816E-04
  1 1 18  1.10041217E-04
  1 1 19  1.09991057E-04
  1 1 20  1.09908713E-04
  1 1 21  1.09951466E-04
  1 1 22  1.09907421E-04
  1 1 23  1.10057826E-04
  1 1 24  1.10060997E-04
  1 1 25  1.10111155E-04
  1 1 26  1.09991407E-04
  1 1 27  1.09889390E-04
  1 1 28  1.10072008E-04
  1 1 29  1.10056966E-04
  1 1 30  1.10082774E-04
  1 1 31  1.10110464E-04
  1 1 32  1.10051463E-04
  1 1 33  1.09963891E-04
  1 1 34  1.10010635E-04
  1 1 35  1.09888827E-04
  1 1 36  1.10104380E-04
  1 1 37  1.09960007E-04
  1 1 38  1.09927559E-04
  1 1 39  1.09900807E-04
  1 1 40  1.09934163E-04
  1 1 41  1.09922840E-04
  1 1 42  1.09889219E-04
  1 1 43  1.10031325E-04
  1 1 44  1.09907943E-04
  1 1 45  1.10073119E-04
  1 1 46  1.09913513E-04
  1 1 47  1.09975787E-04
  1 1 48  1.10003710E-04
  1 1 49  1.09964907E-04
  1 1 50  1.09953834E-04
  1 1 51  1.10039730E-04
  1 1 52  1.10046658E-04
  1 1 53  1.09885145E-04
  1 1 54  1.09891404E-04
  1 1 55  1.10123127E-04
  1 1 56  1.09937293E-04
  1 1 57  1.10065837E-04
  1 1 58  1.10029399E-04
  1 1 59  1.09955456E-04
  1 1 60  1.10027304E-04
  1 1 61  1.09927400E-04
  1 1 62  1.10043908E-04
  1 1 63  1.09925815E-04
  1 1 64  1.10004794E-04
  1 1 65  1.09935359E-04
  1 1 66  1.10038954E-04
  1 1 67  1.09883508E-04
END period  1

