# File generated by Flopy version 3.3.3 on 02/18/2021 at 08:32:25.
BEGIN options
END options

BEGIN griddata
  porosity
    CONSTANT       1.00000000
END griddata

