# File generated by Flopy version 3.3.3 on 02/18/2021 at 08:32:25.
BEGIN options
  XT3D_OFF
END options

BEGIN griddata
  diffc
    CONSTANT  9.00000000E-04
  alh
    CONSTANT  9.00000000E-07
  ath1
    CONSTANT  9.00000000E-07
END griddata

