# File generated by Flopy version 3.3.3 on 02/18/2021 at 08:32:25.
BEGIN options
END options

BEGIN packages
  DIS6  trans.dis  dis
  MST6  trans.mst  mst
  IC6  trans.ic  ic
  ADV6  trans.adv  adv
  DSP6  trans.dsp  dsp
  SSM6  trans.ssm  ssm
  CNC6  trans.cnc  cnc-1
  OC6  trans.oc  oc
END packages

