# File generated by Flopy version 3.3.3 on 02/18/2021 at 08:32:09.
BEGIN options
  TIME_UNITS  days
END options

BEGIN dimensions
  NPER  1
END dimensions

BEGIN perioddata
    1000.00000000  500       1.00000000
END perioddata

