# File generated by Flopy version 3.3.3 on 02/18/2021 at 08:32:09.
BEGIN options
  BUDGET  FILEOUT  gwf-p10-mf6.bud
  HEAD  FILEOUT  gwf-p10-mf6.hds
  HEAD  PRINT_FORMAT  COLUMNS  10  WIDTH  15  DIGITS  6  GENERAL
END options

BEGIN period  1
  SAVE  HEAD  LAST
  SAVE  HEAD  STEPS  1  250  375  500
  SAVE  BUDGET  LAST
  PRINT  HEAD  LAST
  PRINT  BUDGET  FIRST
  PRINT  BUDGET  LAST
END period  1

