# File generated by Flopy version 3.3.3 on 02/18/2021 at 08:32:09.
BEGIN options
  auxiliary  CONCENTRATION
  PRINT_INPUT
  PRINT_FLOWS
END options

BEGIN dimensions
  MAXBOUND  8
END dimensions

BEGIN period  1
  3 11 29  -19230.00000000       0.00000000
  3 19 26  -19230.00000000       0.00000000
  3 26 23  -19230.00000000       0.00000000
  3 33 20  -19230.00000000       0.00000000
  3 40 17  -19230.00000000       0.00000000
  3 48 14  -19230.00000000       0.00000000
  3 48 9  -15384.00000000       0.00000000
  3 52 17  -17307.00000000       0.00000000
END period  1

