# File generated by Flopy version 3.3.3 on 02/18/2021 at 08:32:09.
BEGIN options
  READASARRAYS
  PRINT_FLOWS
END options

BEGIN period  1
  recharge
    CONSTANT       0.00114155
END period  1

