# File generated by Flopy version 3.3.2 on 10/22/2020 at 09:33:53.
BEGIN options
  READASARRAYS
  PRINT_FLOWS
END options

BEGIN period  1
  recharge
    CONSTANT       0.00114155
END period  1

