# File generated by Flopy version 3.3.2 on 10/22/2020 at 09:33:53.
BEGIN options
  SORBTION
END options

BEGIN griddata
  porosity
    CONSTANT       0.30000000
  bulk_density
    CONSTANT       1.70000000
  distcoef
    CONSTANT       0.17600000
END griddata

