# File generated by Flopy version 3.3.3 on 02/18/2021 at 08:32:09.
BEGIN options
  SORPTION  linear
END options

BEGIN griddata
  porosity
    CONSTANT       0.30000000
  bulk_density
    CONSTANT       1.70000000
  distcoef
    CONSTANT       0.17600000
END griddata

