# File generated by Flopy version 3.3.3 on 02/18/2021 at 08:32:09.
BEGIN options
  BUDGET  FILEOUT  gwt-p10-mf6.cbc
  CONCENTRATION  FILEOUT  gwt-p10-mf6.ucn
  CONCENTRATION  PRINT_FORMAT  COLUMNS  10  WIDTH  15  DIGITS  6  GENERAL
END options

BEGIN period  1
  SAVE  CONCENTRATION  LAST
  SAVE  CONCENTRATION  STEPS  1  250  375  500
  SAVE  BUDGET  LAST
  PRINT  CONCENTRATION  LAST
  PRINT  BUDGET  LAST
END period  1

