# File generated by Flopy version 3.3.3 on 02/18/2021 at 08:32:09.
BEGIN options
END options

BEGIN griddata
  alh
    CONSTANT      10.00000000
  ath1
    CONSTANT       2.00000000
  atv
    CONSTANT       2.00000000
END griddata

