# File generated by Flopy version 3.3.3 on 02/18/2021 at 08:31:59.
BEGIN options
  TIME_UNITS  days
END options

BEGIN dimensions
  NPER  1
END dimensions

BEGIN perioddata
      27.00000000  27       1.00000000
END perioddata

