# File generated by Flopy version 3.3.2 on 10/22/2020 at 09:33:44.
BEGIN options
  TIME_UNITS  days
END options

BEGIN dimensions
  NPER  1
END dimensions

BEGIN perioddata
      27.00000000  27       1.00000000
END perioddata

