# File generated by Flopy version 3.3.2 on 10/22/2020 at 09:33:44.
BEGIN options
  SAVE_FLOWS
END options

BEGIN packages
  DIS6  gwf-p05-mf6.dis  dis
  NPF6  gwf-p05-mf6.npf  npf
  STO6  gwf-p05-mf6.sto  sto
  IC6  gwf-p05-mf6.ic  ic
  CHD6  gwf-p05-mf6.chd  chd-1
  WEL6  gwf-p05-mf6.wel  wel-1
  OC6  gwf-p05-mf6.oc  oc
END packages

