# File generated by Flopy version 3.3.3 on 02/18/2021 at 08:31:59.
BEGIN options
END options

BEGIN griddata
  alh
    CONSTANT      10.00000000
  ath1
    CONSTANT      10.00000000
END griddata

