# File generated by Flopy version 3.3.3 on 02/18/2021 at 08:31:59.
BEGIN options
END options

BEGIN dimensions
  MAXBOUND  1
END dimensions

BEGIN period  1
  1 16 16       1.00000000
END period  1

