# File generated by Flopy version 3.3.2 on 10/22/2020 at 09:33:44.
BEGIN options
END options

BEGIN griddata
  porosity
    CONSTANT       0.30000000
END griddata

