# File generated by Flopy version 3.3.3 on 02/18/2021 at 08:28:06.
BEGIN options
  DIGITS  10
  PRINT_INPUT
END options

BEGIN continuous  FILEOUT  ex-gwf-drn-p01.surfrate.obs.csv
  surfrate  to-mvr  surfrate
END continuous  FILEOUT  ex-gwf-drn-p01.surfrate.obs.csv

