# File generated by Flopy version 3.3.2 on 10/22/2020 at 09:30:01.
BEGIN options
END options

BEGIN griddata
  iconvert
    CONSTANT  0
  ss
    CONSTANT       0.00000000
  sy
    CONSTANT       0.00000000
END griddata

BEGIN period  1
  TRANSIENT
END period  1

