# File generated by Flopy version 3.3.2 on 10/22/2020 at 09:30:01.
BEGIN options
  DIGITS  10
  PRINT_INPUT
END options

BEGIN continuous  FILEOUT  gwf_obs.csv
  h1_1_2  HEAD  1 1 2
END continuous  FILEOUT  gwf_obs.csv

