# File generated by Flopy version 3.3.2 on 10/22/2020 at 09:30:01.
BEGIN options
  SAVE_SPECIFIC_DISCHARGE
END options

BEGIN griddata
  icelltype
    CONSTANT  0
  k
    CONSTANT  1.00000000E+06
END griddata

