# File generated by Flopy version 3.3.3 on 02/18/2021 at 08:32:17.
BEGIN options
  PRINT_FLOWS
END options

