# File generated by Flopy version 3.3.2 on 10/22/2020 at 09:34:00.
BEGIN options
END options

BEGIN dimensions
  MAXBOUND  8
END dimensions

BEGIN period  1
  1 1 12     500.00000000
  1 1 13     500.00000000
  1 1 14     500.00000000
  1 1 15     500.00000000
  2 1 12     500.00000000
  2 1 13     500.00000000
  2 1 14     500.00000000
  2 1 15     500.00000000
END period  1

