# File generated by Flopy version 3.3.3 on 02/18/2021 at 08:32:17.
BEGIN options
END options

BEGIN griddata
  alh
    CONSTANT      20.00000000
  ath1
    CONSTANT       2.00000000
  ath2
    CONSTANT       0.20000000
END griddata

