# File generated by Flopy version 3.3.2 on 10/22/2020 at 09:34:00.
BEGIN options
END options

BEGIN griddata
  alh
    CONSTANT      20.00000000
  ath1
    CONSTANT       2.00000000
  ath2
    CONSTANT       0.20000000
END griddata

