# File generated by Flopy version 3.3.3 on 02/18/2021 at 08:28:04.
BEGIN options
  BUDGET  FILEOUT  ex-gwf-disvmesh.cbc
  HEAD  FILEOUT  ex-gwf-disvmesh.hds
END options

BEGIN period  1
  SAVE  HEAD  ALL
  SAVE  BUDGET  ALL
END period  1

