# File generated by Flopy version 3.3.2 on 10/22/2020 at 09:30:09.
BEGIN options
  BUDGET  FILEOUT  ex-gwf-disvmesh.cbc
  HEAD  FILEOUT  ex-gwf-disvmesh.hds
END options

BEGIN period  1
  SAVE  HEAD  ALL
  SAVE  BUDGET  ALL
END period  1

