# File generated by Flopy version 3.3.3 on 02/18/2021 at 08:28:04.
BEGIN options
  XT3D
  SAVE_SPECIFIC_DISCHARGE
END options

BEGIN griddata
  icelltype
    CONSTANT  0
  k
    CONSTANT      10.00000000
  k33
    CONSTANT       0.20000000
END griddata

