# File generated by Flopy version 3.3.3 on 02/18/2021 at 08:28:13.
BEGIN options
  TIME_UNITS  days
END options

BEGIN dimensions
  NPER  1
END dimensions

BEGIN perioddata
    5000.00000000  100       1.02000000
END perioddata

