# File generated by Flopy version 3.3.2 on 10/22/2020 at 09:30:16.
BEGIN options
  TIME_UNITS  days
END options

BEGIN dimensions
  NPER  1
END dimensions

BEGIN perioddata
    5000.00000000  100       1.02000000
END perioddata

