# File generated by Flopy version 3.3.2 on 10/22/2020 at 09:30:16.
BEGIN options
  PRINT_STAGE
  OBS6  FILEIN  ex-gwf-lak-p01.lak.obs
END options

BEGIN dimensions
  NLAKES  1
  NOUTLETS  0
END dimensions

BEGIN packagedata
  1     110.00000000  57
END packagedata

BEGIN connectiondata
  1  1  1 7 6  HORIZONTAL       0.10000000       0.00000000       0.00000000     500.00000000     500.00000000
  1  2  1 8 6  HORIZONTAL       0.10000000       0.00000000       0.00000000     500.00000000     500.00000000
  1  3  1 9 6  HORIZONTAL       0.10000000       0.00000000       0.00000000     500.00000000     500.00000000
  1  4  1 10 6  HORIZONTAL       0.10000000       0.00000000       0.00000000     500.00000000     500.00000000
  1  5  1 11 6  HORIZONTAL       0.10000000       0.00000000       0.00000000     500.00000000     500.00000000
  1  6  1 6 7  HORIZONTAL       0.10000000       0.00000000       0.00000000     500.00000000     500.00000000
  1  7  2 7 7  VERTICAL       0.10000000       0.00000000       0.00000000       0.00000000       0.00000000
  1  8  2 8 7  VERTICAL       0.10000000       0.00000000       0.00000000       0.00000000       0.00000000
  1  9  2 8 7  HORIZONTAL       0.10000000       0.00000000       0.00000000     250.00000000     500.00000000
  1  10  2 9 7  VERTICAL       0.10000000       0.00000000       0.00000000       0.00000000       0.00000000
  1  11  2 9 7  HORIZONTAL       0.10000000       0.00000000       0.00000000     250.00000000     500.00000000
  1  12  2 10 7  VERTICAL       0.10000000       0.00000000       0.00000000       0.00000000       0.00000000
  1  13  2 10 7  HORIZONTAL       0.10000000       0.00000000       0.00000000     250.00000000     500.00000000
  1  14  2 11 7  VERTICAL       0.10000000       0.00000000       0.00000000       0.00000000       0.00000000
  1  15  1 12 7  HORIZONTAL       0.10000000       0.00000000       0.00000000     500.00000000     500.00000000
  1  16  1 6 8  HORIZONTAL       0.10000000       0.00000000       0.00000000     500.00000000     500.00000000
  1  17  2 7 8  VERTICAL       0.10000000       0.00000000       0.00000000       0.00000000       0.00000000
  1  18  2 7 8  HORIZONTAL       0.10000000       0.00000000       0.00000000     250.00000000     500.00000000
  1  19  3 8 8  VERTICAL       0.10000000       0.00000000       0.00000000       0.00000000       0.00000000
  1  20  3 9 8  VERTICAL       0.10000000       0.00000000       0.00000000       0.00000000       0.00000000
  1  21  3 10 8  VERTICAL       0.10000000       0.00000000       0.00000000       0.00000000       0.00000000
  1  22  2 11 8  VERTICAL       0.10000000       0.00000000       0.00000000       0.00000000       0.00000000
  1  23  2 11 8  HORIZONTAL       0.10000000       0.00000000       0.00000000     250.00000000     500.00000000
  1  24  1 12 8  HORIZONTAL       0.10000000       0.00000000       0.00000000     500.00000000     500.00000000
  1  25  1 6 9  HORIZONTAL       0.10000000       0.00000000       0.00000000     500.00000000     500.00000000
  1  26  2 7 9  VERTICAL       0.10000000       0.00000000       0.00000000       0.00000000       0.00000000
  1  27  2 7 9  HORIZONTAL       0.10000000       0.00000000       0.00000000     250.00000000     500.00000000
  1  28  3 8 9  VERTICAL       0.10000000       0.00000000       0.00000000       0.00000000       0.00000000
  1  29  3 9 9  VERTICAL       0.10000000       0.00000000       0.00000000       0.00000000       0.00000000
  1  30  3 10 9  VERTICAL       0.10000000       0.00000000       0.00000000       0.00000000       0.00000000
  1  31  2 11 9  VERTICAL       0.10000000       0.00000000       0.00000000       0.00000000       0.00000000
  1  32  2 11 9  HORIZONTAL       0.10000000       0.00000000       0.00000000     250.00000000     500.00000000
  1  33  1 12 9  HORIZONTAL       0.10000000       0.00000000       0.00000000     500.00000000     500.00000000
  1  34  1 6 10  HORIZONTAL       0.10000000       0.00000000       0.00000000     500.00000000     500.00000000
  1  35  2 7 10  VERTICAL       0.10000000       0.00000000       0.00000000       0.00000000       0.00000000
  1  36  2 7 10  HORIZONTAL       0.10000000       0.00000000       0.00000000     250.00000000     500.00000000
  1  37  3 8 10  VERTICAL       0.10000000       0.00000000       0.00000000       0.00000000       0.00000000
  1  38  3 9 10  VERTICAL       0.10000000       0.00000000       0.00000000       0.00000000       0.00000000
  1  39  3 10 10  VERTICAL       0.10000000       0.00000000       0.00000000       0.00000000       0.00000000
  1  40  2 11 10  VERTICAL       0.10000000       0.00000000       0.00000000       0.00000000       0.00000000
  1  41  2 11 10  HORIZONTAL       0.10000000       0.00000000       0.00000000     250.00000000     500.00000000
  1  42  1 12 10  HORIZONTAL       0.10000000       0.00000000       0.00000000     500.00000000     500.00000000
  1  43  1 6 11  HORIZONTAL       0.10000000       0.00000000       0.00000000     500.00000000     500.00000000
  1  44  2 7 11  VERTICAL       0.10000000       0.00000000       0.00000000       0.00000000       0.00000000
  1  45  2 8 11  VERTICAL       0.10000000       0.00000000       0.00000000       0.00000000       0.00000000
  1  46  2 8 11  HORIZONTAL       0.10000000       0.00000000       0.00000000     250.00000000     500.00000000
  1  47  2 9 11  VERTICAL       0.10000000       0.00000000       0.00000000       0.00000000       0.00000000
  1  48  2 9 11  HORIZONTAL       0.10000000       0.00000000       0.00000000     250.00000000     500.00000000
  1  49  2 10 11  VERTICAL       0.10000000       0.00000000       0.00000000       0.00000000       0.00000000
  1  50  2 10 11  HORIZONTAL       0.10000000       0.00000000       0.00000000     250.00000000     500.00000000
  1  51  2 11 11  VERTICAL       0.10000000       0.00000000       0.00000000       0.00000000       0.00000000
  1  52  1 12 11  HORIZONTAL       0.10000000       0.00000000       0.00000000     500.00000000     500.00000000
  1  53  1 7 12  HORIZONTAL       0.10000000       0.00000000       0.00000000     500.00000000     500.00000000
  1  54  1 8 12  HORIZONTAL       0.10000000       0.00000000       0.00000000     500.00000000     500.00000000
  1  55  1 9 12  HORIZONTAL       0.10000000       0.00000000       0.00000000     500.00000000     500.00000000
  1  56  1 10 12  HORIZONTAL       0.10000000       0.00000000       0.00000000     500.00000000     500.00000000
  1  57  1 11 12  HORIZONTAL       0.10000000       0.00000000       0.00000000     500.00000000     500.00000000
END connectiondata

BEGIN period  1
  1  rainfall  0.0116
  1  evaporation  0.0103
END period  1

