# File generated by Flopy version 3.3.3 on 02/18/2021 at 08:28:13.
BEGIN options
  DIGITS  10
  PRINT_INPUT
END options

BEGIN continuous  FILEOUT  ex-gwf-lak-p01.lak.obs.csv
  stage  stage  1
END continuous  FILEOUT  ex-gwf-lak-p01.lak.obs.csv

