# File generated by Flopy version 3.3.2 on 10/22/2020 at 09:30:16.
BEGIN options
END options

BEGIN continuous  FILEOUT  ex-gwf-lak-p01.gwf.obs.csv
  A  head  1 4 4
  B  head  1 14 14
END continuous  FILEOUT  ex-gwf-lak-p01.gwf.obs.csv

