# File generated by Flopy version 3.3.2 on 10/22/2020 at 09:30:16.
BEGIN options
END options

BEGIN timing
  TDIS6  ex-gwf-lak-p01.tdis
END timing

BEGIN models
  gwf6  ex-gwf-lak-p01.nam  ex-gwf-lak-p01
END models

BEGIN exchanges
END exchanges

BEGIN solutiongroup  1
  ims6  ex-gwf-lak-p01.ims  ex-gwf-lak-p01
END solutiongroup  1

