# File generated by Flopy version 3.3.2 on 10/22/2020 at 09:29:56.
BEGIN options
  SAVE_FLOWS
  
END options

BEGIN packages
  DIS6  ex-gwf-bcf2ss.dis  dis
  NPF6  ex-gwf-bcf2ss.npf  npf
  IC6  ex-gwf-bcf2ss.ic  ic
  RIV6  ex-gwf-bcf2ss.riv  riv_0
  WEL6  ex-gwf-bcf2ss.wel  wel_0
  RCH6  ex-gwf-bcf2ss.rcha  rcha
  OC6  ex-gwf-bcf2ss.oc  oc
END packages

