# File generated by Flopy version 3.3.2 on 10/22/2020 at 09:33:30.
BEGIN options
  XT3D_OFF
END options

BEGIN griddata
  alh
    CONSTANT       1.00000000
  ath1
    CONSTANT       1.00000000
  atv
    CONSTANT       1.00000000
END griddata

