# File generated by Flopy version 3.3.3 on 02/18/2021 at 08:31:40.
BEGIN options
  XT3D_OFF
END options

BEGIN griddata
  alh
    CONSTANT       1.00000000
  ath1
    CONSTANT       1.00000000
  atv
    CONSTANT       1.00000000
END griddata

