# File generated by Flopy version 3.3.2 on 10/22/2020 at 09:33:30.
BEGIN options
  BUDGET  FILEOUT  trans.cbc
  CONCENTRATION  FILEOUT  trans.ucn
  CONCENTRATION  PRINT_FORMAT  COLUMNS  400  WIDTH  15  DIGITS  6  GENERAL
END options

BEGIN period  1
  SAVE  CONCENTRATION  STEPS  10
  PRINT  CONCENTRATION  LAST
  PRINT  BUDGET  ALL
END period  1

BEGIN period  2
  SAVE  CONCENTRATION  STEPS  27  227
END period  2

