# File generated by Flopy version 3.3.3 on 02/18/2021 at 08:31:40.
BEGIN options
END options

BEGIN sources
  RCH-1  AUX  CONCENTRATION
END sources

