# File generated by Flopy version 3.3.2 on 10/22/2020 at 09:33:30.
BEGIN options
  TIME_UNITS  days
END options

BEGIN dimensions
  NPER  2
END dimensions

BEGIN perioddata
     730.00000000  73       1.00000000
   29270.00000000  2927       1.00000000
END perioddata

