# File generated by Flopy version 3.3.3 on 02/18/2021 at 08:31:40.
BEGIN options
  DIGITS  10
  PRINT_INPUT
END options

BEGIN continuous  FILEOUT  trans.obs.csv
  obs1  CONCENTRATION  49 1 119
  obs2  CONCENTRATION  77 1 359
END continuous  FILEOUT  trans.obs.csv

