# File generated by Flopy version 3.3.2 on 10/22/2020 at 09:33:30.
BEGIN options
END options

BEGIN griddata
  porosity
    CONSTANT       0.10000000
END griddata

