# File generated by Flopy version 3.3.2 on 10/22/2020 at 09:33:37.
BEGIN options
END options

BEGIN griddata
  alh
    CONSTANT       0.60000000
  ath1
    CONSTANT       0.03000000
  ath2
    CONSTANT       0.00600000
END griddata

