# File generated by Flopy version 3.3.3 on 02/18/2021 at 08:31:47.
BEGIN options
  TIME_UNITS  days
END options

BEGIN dimensions
  NPER  1
END dimensions

BEGIN perioddata
     400.00000000  100       1.00000000
END perioddata

