# File generated by Flopy version 3.3.3 on 02/18/2021 at 08:31:47.
BEGIN options
  PRINT_OPTION  summary
END options

BEGIN nonlinear
  OUTER_DVCLOSE       0.01000000
  UNDER_RELAXATION  simple
  UNDER_RELAXATION_GAMMA       0.90000000
END nonlinear

BEGIN linear
  INNER_DVCLOSE       0.01000000
  LINEAR_ACCELERATION  bicgstab
  RELAXATION_FACTOR       0.99000000
END linear

