# File generated by Flopy version 3.3.3 on 02/18/2021 at 08:31:47.
BEGIN options
END options

BEGIN griddata
  alh
    CONSTANT       0.60000000
  ath1
    CONSTANT       0.03000000
  ath2
    CONSTANT       0.00600000
END griddata

