# File generated by Flopy version 3.3.2 on 10/22/2020 at 09:33:37.
BEGIN options
  SAVE_FLOWS
END options

BEGIN packages
  DISV6  trans.disv  disv
  IC6  trans.ic  ic
  MST6  trans.mst  mst
  ADV6  trans.adv  adv
  DSP6  trans.dsp  dsp
  FMI6  trans.fmi  fmi
  SRC6  trans.src  src
  SSM6  trans.ssm  ssm
  OBS6  trans.obs  obs_0
  OC6  trans.oc  oc
END packages

