# File generated by Flopy version 3.3.3 on 02/18/2021 at 08:27:57.
BEGIN options
  TS6  FILEIN  ex-gwf-csub-p03.head.ts
END options

BEGIN dimensions
  MAXBOUND  4
END dimensions

BEGIN period  1
  1 1 1  upper
  6 1 1  middle
  11 1 1  middle
  13 1 1  lower
END period  1

