# File generated by Flopy version 3.3.3 on 02/18/2021 at 08:27:57.
BEGIN options
  SAVE_FLOWS
END options

BEGIN packages
  DIS6  ex-gwf-csub-p03a.dis  dis
  OBS6  ex-gwf-csub-p03a.gwf.obs  obs_0
  IC6  ex-gwf-csub-p03a.ic  ic
  NPF6  ex-gwf-csub-p03a.npf  npf
  STO6  ex-gwf-csub-p03a.sto  sto
  CSUB6  ex-gwf-csub-p03a.csub  csub
  CHD6  ex-gwf-csub-p03a.chd  chd_0
  OC6  ex-gwf-csub-p03a.oc  oc
END packages

