# File generated by Flopy version 3.3.3 on 02/18/2021 at 08:27:57.
BEGIN options
  TIME_UNITS  days
END options

BEGIN dimensions
  NPER  353
END dimensions

BEGIN perioddata
     365.25000000  12       1.00000000
     365.25000000  12       1.00000000
     365.25000000  12       1.00000000
     365.25000000  12       1.00000000
     365.25000000  12       1.00000000
     365.25000000  12       1.00000000
     365.25000000  12       1.00000000
     365.25000000  12       1.00000000
     365.25000000  12       1.00000000
     365.25000000  12       1.00000000
     365.25000000  12       1.00000000
     365.25000000  12       1.00000000
     365.25000000  12       1.00000000
     365.25000000  12       1.00000000
     365.25000000  12       1.00000000
     365.25000000  12       1.00000000
     365.25000000  12       1.00000000
     365.25000000  12       1.00000000
     365.25000000  12       1.00000000
     365.25000000  12       1.00000000
     365.25000000  12       1.00000000
     365.25000000  12       1.00000000
     365.25000000  12       1.00000000
     365.25000000  12       1.00000000
     365.25000000  12       1.00000000
     365.25000000  12       1.00000000
     365.25000000  12       1.00000000
     365.25000000  12       1.00000000
     365.25000000  12       1.00000000
     365.25000000  12       1.00000000
     365.25000000  12       1.00000000
     365.25000000  12       1.00000000
     365.25000000  12       1.00000000
     365.25000000  12       1.00000000
     365.25000000  12       1.00000000
     365.25000000  12       1.00000000
     365.25000000  12       1.00000000
     365.25000000  12       1.00000000
     365.25000000  12       1.00000000
     365.25000000  12       1.00000000
     365.25000000  12       1.00000000
     365.25000000  12       1.00000000
     365.25000000  12       1.00000000
     365.25000000  12       1.00000000
     365.25000000  12       1.00000000
     365.25000000  12       1.00000000
     365.25000000  12       1.00000000
     365.25000000  12       1.00000000
     365.25000000  12       1.00000000
     365.25000000  12       1.00000000
     365.25000000  12       1.00000000
     365.25000000  12       1.00000000
     365.25000000  12       1.00000000
     365.25000000  12       1.00000000
     365.25000000  12       1.00000000
     365.25000000  12       1.00000000
     365.25000000  12       1.00000000
     365.25000000  12       1.00000000
     365.25000000  12       1.00000000
     365.25000000  12       1.00000000
     365.25000000  12       1.00000000
     365.25000000  12       1.00000000
     365.25000000  12       1.00000000
     365.25000000  12       1.00000000
     365.25000000  12       1.00000000
     365.25000000  12       1.00000000
     365.25000000  12       1.00000000
     365.25000000  12       1.00000000
     365.25000000  12       1.00000000
     365.25000000  12       1.00000000
     365.25000000  12       1.00000000
     365.25000000  12       1.00000000
     365.25000000  12       1.00000000
     365.25000000  12       1.00000000
     365.25000000  12       1.00000000
     365.25000000  12       1.00000000
     365.25000000  12       1.00000000
     365.25000000  12       1.00000000
     365.25000000  12       1.00000000
     365.25000000  12       1.00000000
     365.25000000  12       1.00000000
     365.25000000  12       1.00000000
      22.00000000  22       1.00000000
      22.00000000  22       1.00000000
      22.00000000  22       1.00000000
      22.00000000  22       1.00000000
      22.00000000  22       1.00000000
      22.00000000  22       1.00000000
      22.00000000  22       1.00000000
      22.00000000  22       1.00000000
      22.00000000  22       1.00000000
      22.00000000  22       1.00000000
      22.00000000  22       1.00000000
      22.00000000  22       1.00000000
      22.00000000  22       1.00000000
      22.00000000  22       1.00000000
      22.00000000  22       1.00000000
      22.00000000  22       1.00000000
      22.00000000  22       1.00000000
      22.00000000  22       1.00000000
      22.00000000  22       1.00000000
      22.00000000  22       1.00000000
      22.00000000  22       1.00000000
      22.00000000  22       1.00000000
      22.00000000  22       1.00000000
      22.00000000  22       1.00000000
      22.00000000  22       1.00000000
      22.00000000  22       1.00000000
      22.00000000  22       1.00000000
      22.00000000  22       1.00000000
      22.00000000  22       1.00000000
      22.00000000  22       1.00000000
      22.00000000  22       1.00000000
      22.00000000  22       1.00000000
      22.00000000  22       1.00000000
      22.00000000  22       1.00000000
      22.00000000  22       1.00000000
      22.00000000  22       1.00000000
      22.00000000  22       1.00000000
      22.00000000  22       1.00000000
      22.00000000  22       1.00000000
      22.00000000  22       1.00000000
      22.00000000  22       1.00000000
      22.00000000  22       1.00000000
      22.00000000  22       1.00000000
      22.00000000  22       1.00000000
      22.00000000  22       1.00000000
      22.00000000  22       1.00000000
      22.00000000  22       1.00000000
      22.00000000  22       1.00000000
      22.00000000  22       1.00000000
      22.00000000  22       1.00000000
      22.00000000  22       1.00000000
      22.00000000  22       1.00000000
      22.00000000  22       1.00000000
      22.00000000  22       1.00000000
      22.00000000  22       1.00000000
      22.00000000  22       1.00000000
      22.00000000  22       1.00000000
      22.00000000  22       1.00000000
      22.00000000  22       1.00000000
      22.00000000  22       1.00000000
      22.00000000  22       1.00000000
      22.00000000  22       1.00000000
      22.00000000  22       1.00000000
      22.00000000  22       1.00000000
      22.00000000  22       1.00000000
      22.00000000  22       1.00000000
      22.00000000  22       1.00000000
      22.00000000  22       1.00000000
      22.00000000  22       1.00000000
      22.00000000  22       1.00000000
      22.00000000  22       1.00000000
      22.00000000  22       1.00000000
      22.00000000  22       1.00000000
      22.00000000  22       1.00000000
      22.00000000  22       1.00000000
      22.00000000  22       1.00000000
      22.00000000  22       1.00000000
      22.00000000  22       1.00000000
      22.00000000  22       1.00000000
      22.00000000  22       1.00000000
      22.00000000  22       1.00000000
      22.00000000  22       1.00000000
      22.00000000  22       1.00000000
      22.00000000  22       1.00000000
      22.00000000  22       1.00000000
      22.00000000  22       1.00000000
      22.00000000  22       1.00000000
      22.00000000  22       1.00000000
      22.00000000  22       1.00000000
      22.00000000  22       1.00000000
      22.00000000  22       1.00000000
      22.00000000  22       1.00000000
      22.00000000  22       1.00000000
      22.00000000  22       1.00000000
      22.00000000  22       1.00000000
      22.00000000  22       1.00000000
      22.00000000  22       1.00000000
      22.00000000  22       1.00000000
      22.00000000  22       1.00000000
      22.00000000  22       1.00000000
      22.00000000  22       1.00000000
      22.00000000  22       1.00000000
      22.00000000  22       1.00000000
      22.00000000  22       1.00000000
      22.00000000  22       1.00000000
      22.00000000  22       1.00000000
      22.00000000  22       1.00000000
      22.00000000  22       1.00000000
      22.00000000  22       1.00000000
      22.00000000  22       1.00000000
      22.00000000  22       1.00000000
      22.00000000  22       1.00000000
      22.00000000  22       1.00000000
      22.00000000  22       1.00000000
      22.00000000  22       1.00000000
      22.00000000  22       1.00000000
      22.00000000  22       1.00000000
      22.00000000  22       1.00000000
      22.00000000  22       1.00000000
      22.00000000  22       1.00000000
      22.00000000  22       1.00000000
      22.00000000  22       1.00000000
      22.00000000  22       1.00000000
      22.00000000  22       1.00000000
      22.00000000  22       1.00000000
      22.00000000  22       1.00000000
      22.00000000  22       1.00000000
      22.00000000  22       1.00000000
      22.00000000  22       1.00000000
      22.00000000  22       1.00000000
      22.00000000  22       1.00000000
      22.00000000  22       1.00000000
      22.00000000  22       1.00000000
      22.00000000  22       1.00000000
      22.00000000  22       1.00000000
      22.00000000  22       1.00000000
      22.00000000  22       1.00000000
      22.00000000  22       1.00000000
      22.00000000  22       1.00000000
      22.00000000  22       1.00000000
      22.00000000  22       1.00000000
      22.00000000  22       1.00000000
      22.00000000  22       1.00000000
      22.00000000  22       1.00000000
      22.00000000  22       1.00000000
      22.00000000  22       1.00000000
      22.00000000  22       1.00000000
      22.00000000  22       1.00000000
      22.00000000  22       1.00000000
      22.00000000  22       1.00000000
      22.00000000  22       1.00000000
      22.00000000  22       1.00000000
      22.00000000  22       1.00000000
      22.00000000  22       1.00000000
      22.00000000  22       1.00000000
      22.00000000  22       1.00000000
      22.00000000  22       1.00000000
      22.00000000  22       1.00000000
      22.00000000  22       1.00000000
      22.00000000  22       1.00000000
      22.00000000  22       1.00000000
      22.00000000  22       1.00000000
      22.00000000  22       1.00000000
      22.00000000  22       1.00000000
      22.00000000  22       1.00000000
      22.00000000  22       1.00000000
      22.00000000  22       1.00000000
      22.00000000  22       1.00000000
      22.00000000  22       1.00000000
      22.00000000  22       1.00000000
      22.00000000  22       1.00000000
      22.00000000  22       1.00000000
      22.00000000  22       1.00000000
      22.00000000  22       1.00000000
      22.00000000  22       1.00000000
      22.00000000  22       1.00000000
      22.00000000  22       1.00000000
      22.00000000  22       1.00000000
      22.00000000  22       1.00000000
      22.00000000  22       1.00000000
      22.00000000  22       1.00000000
      22.00000000  22       1.00000000
      22.00000000  22       1.00000000
      22.00000000  22       1.00000000
      22.00000000  22       1.00000000
      22.00000000  22       1.00000000
      22.00000000  22       1.00000000
      22.00000000  22       1.00000000
      22.00000000  22       1.00000000
      22.00000000  22       1.00000000
      22.00000000  22       1.00000000
      22.00000000  22       1.00000000
      22.00000000  22       1.00000000
      22.00000000  22       1.00000000
      22.00000000  22       1.00000000
      22.00000000  22       1.00000000
      22.00000000  22       1.00000000
      22.00000000  22       1.00000000
      22.00000000  22       1.00000000
      22.00000000  22       1.00000000
      22.00000000  22       1.00000000
      22.00000000  22       1.00000000
      22.00000000  22       1.00000000
      22.00000000  22       1.00000000
      22.00000000  22       1.00000000
      22.00000000  22       1.00000000
      22.00000000  22       1.00000000
      22.00000000  22       1.00000000
      22.00000000  22       1.00000000
      22.00000000  22       1.00000000
      22.00000000  22       1.00000000
      22.00000000  22       1.00000000
      22.00000000  22       1.00000000
      22.00000000  22       1.00000000
      22.00000000  22       1.00000000
      22.00000000  22       1.00000000
      22.00000000  22       1.00000000
      22.00000000  22       1.00000000
      22.00000000  22       1.00000000
      22.00000000  22       1.00000000
      22.00000000  22       1.00000000
      22.00000000  22       1.00000000
      22.00000000  22       1.00000000
      22.00000000  22       1.00000000
      22.00000000  22       1.00000000
      22.00000000  22       1.00000000
      22.00000000  22       1.00000000
      22.00000000  22       1.00000000
      22.00000000  22       1.00000000
      22.00000000  22       1.00000000
      22.00000000  22       1.00000000
      22.00000000  22       1.00000000
      22.00000000  22       1.00000000
      22.00000000  22       1.00000000
      22.00000000  22       1.00000000
      22.00000000  22       1.00000000
      22.00000000  22       1.00000000
      22.00000000  22       1.00000000
      22.00000000  22       1.00000000
      22.00000000  22       1.00000000
      22.00000000  22       1.00000000
      22.00000000  22       1.00000000
      22.00000000  22       1.00000000
      22.00000000  22       1.00000000
      22.00000000  22       1.00000000
      22.00000000  22       1.00000000
      22.00000000  22       1.00000000
      22.00000000  22       1.00000000
      22.00000000  22       1.00000000
      22.00000000  22       1.00000000
      22.00000000  22       1.00000000
      22.00000000  22       1.00000000
      22.00000000  22       1.00000000
      22.00000000  22       1.00000000
      22.00000000  22       1.00000000
      22.00000000  22       1.00000000
      22.00000000  22       1.00000000
      22.00000000  22       1.00000000
      22.00000000  22       1.00000000
      22.00000000  22       1.00000000
      22.00000000  22       1.00000000
      22.00000000  22       1.00000000
      22.00000000  22       1.00000000
      22.00000000  22       1.00000000
      22.00000000  22       1.00000000
      22.00000000  22       1.00000000
      22.00000000  22       1.00000000
      22.00000000  22       1.00000000
      22.00000000  22       1.00000000
      22.00000000  22       1.00000000
      22.00000000  22       1.00000000
END perioddata

