# File generated by Flopy version 3.3.3 on 02/18/2021 at 08:31:30.
BEGIN options
END options

BEGIN dimensions
  MAXBOUND  15
END dimensions

BEGIN period  1
  5 5 11      -5.00000000
  3 4 6      -5.00000000
  3 6 12      -5.00000000
  1 9 8      -5.00000000
  1 9 10      -5.00000000
  1 9 12      -5.00000000
  1 9 14      -5.00000000
  1 11 8      -5.00000000
  1 11 10      -5.00000000
  1 11 12      -5.00000000
  1 11 14      -5.00000000
  1 13 8      -5.00000000
  1 13 10      -5.00000000
  1 13 12      -5.00000000
  1 13 14      -5.00000000
END period  1

