# File generated by Flopy version 3.3.3 on 02/18/2021 at 08:31:30.
BEGIN options
  READASARRAYS
END options

BEGIN period  1
  recharge
    CONSTANT  3.00000000E-08
END period  1

