# File generated by Flopy version 3.3.2 on 10/22/2020 at 09:33:21.
BEGIN options
  READASARRAYS
END options

BEGIN period  1
  recharge
    CONSTANT  3.00000000E-08
END period  1

