# File generated by Flopy version 3.3.3 on 02/18/2021 at 08:31:30.
BEGIN options
  SAVE_FLOWS
END options

BEGIN packages
  DIS6  ex-gwf-twri01.dis  dis
  NPF6  ex-gwf-twri01.npf  npf
  IC6  ex-gwf-twri01.ic  ic
  CHD6  ex-gwf-twri01.chd  chd_0
  DRN6  ex-gwf-twri01.drn  drn_0
  WEL6  ex-gwf-twri01.wel  wel_0
  RCH6  ex-gwf-twri01.rcha  rcha
  OC6  ex-gwf-twri01.oc  oc
END packages

