# File generated by Flopy version 3.3.2 on 10/22/2020 at 09:33:21.
BEGIN options
END options

BEGIN timing
  TDIS6  ex-gwf-twri01.tdis
END timing

BEGIN models
  gwf6  ex-gwf-twri01.nam  ex-gwf-twri01
END models

BEGIN exchanges
END exchanges

BEGIN solutiongroup  1
  ims6  ex-gwf-twri01.ims  ex-gwf-twri01
END solutiongroup  1

