# File generated by Flopy version 3.3.3 on 02/18/2021 at 08:28:11.
BEGIN options
  SAVE_FLOWS
END options

BEGIN packages
  DIS6  ex-gwf-hanix.dis  dis
  NPF6  ex-gwf-hanix.npf  npf
  IC6  ex-gwf-hanix.ic  ic
  CHD6  ex-gwf-hanix.chd  chd
  WEL6  ex-gwf-hanix.wel  wel
  OC6  ex-gwf-hanix.oc  oc
END packages

