# File generated by Flopy version 3.3.3 on 02/18/2021 at 08:28:11.
BEGIN options
END options

BEGIN timing
  TDIS6  ex-gwf-hanix.tdis
END timing

BEGIN models
  gwf6  ex-gwf-hanix.nam  ex-gwf-hanix
END models

BEGIN exchanges
END exchanges

BEGIN solutiongroup  1
  ims6  ex-gwf-hanix.ims  ex-gwf-hanix
END solutiongroup  1

