# File generated by Flopy version 3.3.3 on 02/18/2021 at 08:32:15.
BEGIN options
  BUDGET  FILEOUT  trans.cbc
  CONCENTRATION  FILEOUT  trans.ucn
  CONCENTRATION  PRINT_FORMAT  COLUMNS  46  WIDTH  15  DIGITS  6  GENERAL
END options

BEGIN period  1
  SAVE  CONCENTRATION  ALL
  PRINT  CONCENTRATION  ALL
  PRINT  BUDGET  ALL
END period  1

