# File generated by Flopy version 3.3.2 on 10/22/2020 at 09:33:58.
BEGIN options
  PRINT_FLOWS
END options

