# File generated by Flopy version 3.3.3 on 02/18/2021 at 08:32:15.
BEGIN options
END options

BEGIN packagedata
  GWFHEAD  FILEIN  ../mf6gwf/flow.hds
  GWFBUDGET  FILEIN  ../mf6gwf/flow.bud
  GWFMOVER  FILEIN  ../mf6gwf/flow.mvr.bud
  MAW-1  FILEIN  ../mf6gwf/flow.maw.bud
END packagedata

