# File generated by Flopy version 3.3.2 on 10/22/2020 at 09:33:58.
BEGIN options
END options

BEGIN griddata
  alh
    CONSTANT      10.00000000
  ath1
    CONSTANT       3.00000000
  atv
    CONSTANT       0.30000000
END griddata

