# File generated by Flopy version 3.3.2 on 10/22/2020 at 09:30:20.
BEGIN options
  SAVE_FLOWS
  NEWTON
END options

BEGIN packages
  DIS6  gwf-lgr-parent.dis  dis
  IC6  gwf-lgr-parent.ic  ic
  NPF6  gwf-lgr-parent.npf  npf
  OC6  gwf-lgr-parent.oc  oc
  CHD6  gwf-lgr-parent.chd1.chd  chd-1
  CHD6  gwf-lgr-parent.chd2.chd  chd-2
  SFR6  gwf-lgr-parent.sfr  sfr-parent
END packages

