# File generated by Flopy version 3.3.3 on 02/18/2021 at 08:28:17.
BEGIN options
  ALTERNATIVE_CELL_AVERAGING  amt-lmk
END options

BEGIN griddata
  icelltype  LAYERED
    CONSTANT  1
    CONSTANT  0
    CONSTANT  0
  k
    CONSTANT       1.00000000
  k33
    CONSTANT       1.00000000
END griddata

