# File generated by Flopy version 3.3.2 on 10/22/2020 at 09:30:20.
BEGIN options
  ALTERNATIVE_CELL_AVERAGING  amt-lmk
END options

BEGIN griddata
  icelltype  LAYERED
    CONSTANT  1
    CONSTANT  0
    CONSTANT  0
  k
    CONSTANT       1.00000000
  k33
    CONSTANT       1.00000000
END griddata

