# File generated by Flopy version 3.3.2 on 10/22/2020 at 09:30:20.
BEGIN options
  SAVE_FLOWS
  NEWTON
END options

BEGIN packages
  DIS6  gwf-lgr-child.dis  dis
  IC6  gwf-lgr-child.ic  ic
  NPF6  gwf-lgr-child.npf  npf
  OC6  gwf-lgr-child.oc  oc
  SFR6  gwf-lgr-child.sfr  sfr-child
END packages

