# File generated by Flopy version 3.3.2 on 10/22/2020 at 09:33:56.
BEGIN options
END options

BEGIN linear
  LINEAR_ACCELERATION  bicgstab
END linear

