# File generated by Flopy version 3.3.2 on 10/22/2020 at 09:33:56.
BEGIN options
  XT3D_OFF
END options

BEGIN griddata
  alh
    CONSTANT      10.00000000
  ath1
    CONSTANT      10.00000000
END griddata

