# File generated by Flopy version 3.3.2 on 10/22/2020 at 09:33:56.
BEGIN options
  ZERO_ORDER_DECAY
  SORBTION
END options

BEGIN griddata
  porosity
    CONSTANT       0.20000000
  decay
    CONSTANT  -5.00000000E-04
  decay_sorbed
    CONSTANT  -5.00000000E-04
  bulk_density
    CONSTANT       4.00000000
  distcoef
    CONSTANT       0.25000000
END griddata

