# File generated by Flopy version 3.3.3 on 02/18/2021 at 08:32:13.
BEGIN options
  TIME_UNITS  days
END options

BEGIN dimensions
  NPER  2
END dimensions

BEGIN perioddata
    1000.00000000  10       1.00000000
    9000.00000000  90       1.00000000
END perioddata

