# File generated by Flopy version 3.3.3 on 02/18/2021 at 08:31:52.
BEGIN options
  TIME_UNITS  seconds
END options

BEGIN dimensions
  NPER  2
END dimensions

BEGIN perioddata
     160.00000000  160       1.00000000
    1340.00000000  1340       1.00000000
END perioddata

