# File generated by Flopy version 3.3.2 on 10/22/2020 at 09:30:00.
BEGIN options
END options

BEGIN period  1
  PRINT  BUDGET  ALL
END period  1

