# File generated by Flopy version 3.3.2 on 10/22/2020 at 09:30:00.
BEGIN options
  DIGITS  10
  PRINT_INPUT
END options

BEGIN continuous  FILEOUT  gwf_calib_obs.csv
  w3_1_1  HEAD  3 1 12
END continuous  FILEOUT  gwf_calib_obs.csv

