# File generated by Flopy version 3.3.3 on 02/18/2021 at 08:27:53.
BEGIN options
END options

BEGIN griddata
  iconvert  LAYERED
    CONSTANT  1
    CONSTANT  0
    CONSTANT  0
  ss
    CONSTANT       0.00000000
  sy  LAYERED
    CONSTANT       0.10000000
    CONSTANT       0.05000000
    CONSTANT       0.25000000
END griddata

BEGIN period  1
  STEADY-STATE
END period  1

BEGIN period  2
  TRANSIENT
END period  2

