# File generated by Flopy version 3.3.3 on 02/18/2021 at 08:27:53.
BEGIN griddata
  strt
    CONSTANT     -10.70000000
END griddata

