# File generated by Flopy version 3.3.3 on 02/18/2021 at 08:27:53.
BEGIN options
  SAVE_SPECIFIC_DISCHARGE
END options

BEGIN griddata
  icelltype  LAYERED
    CONSTANT  1
    CONSTANT  0
    CONSTANT  0
  k  LAYERED
    CONSTANT  1.80000000E-05
    CONSTANT  3.50000000E-10
    CONSTANT  3.10000000E-05
END griddata

