# File generated by Flopy version 3.3.3 on 02/18/2021 at 08:27:53.
BEGIN options
  TIME_UNITS  seconds
END options

BEGIN dimensions
  NPER  2
END dimensions

BEGIN perioddata
       0.50000000  1       1.00000000
      58.50000000  117       1.00000000
END perioddata

