# File generated by Flopy version 3.3.2 on 10/22/2020 at 09:30:00.
BEGIN options
  TIME_UNITS  seconds
END options

BEGIN dimensions
  NPER  2
END dimensions

BEGIN perioddata
       0.50000000  1       1.00000000
      58.50000000  117       1.00000000
END perioddata

