# File generated by Flopy version 3.3.2 on 10/22/2020 at 09:33:20.
BEGIN options
  BUDGET  FILEOUT  ex-gwf-spbc.cbc
  HEAD  FILEOUT  ex-gwf-spbc.hds
END options

BEGIN period  1
  SAVE  HEAD  ALL
  SAVE  BUDGET  ALL
END period  1

