# File generated by Flopy version 3.3.2 on 10/22/2020 at 09:33:20.
BEGIN options
  SAVE_FLOWS
END options

BEGIN packages
  DIS6  ex-gwf-spbc.dis  dis
  NPF6  ex-gwf-spbc.npf  npf
  IC6  ex-gwf-spbc.ic  ic
  CHD6  ex-gwf-spbc.chd  chd
  OC6  ex-gwf-spbc.oc  oc
END packages

