# File generated by Flopy version 3.3.3 on 02/18/2021 at 08:31:38.
BEGIN options
  DENSEREF    1000.00000000
END options

BEGIN dimensions
  NRHOSPECIES  1
END dimensions

BEGIN packagedata
  1       0.70000000       0.00000000  trans  concentration
END packagedata

