# File generated by Flopy version 3.3.2 on 10/22/2020 at 09:33:28.
BEGIN griddata
  strt
    CONSTANT      35.00000000
END griddata

