# File generated by Flopy version 3.3.3 on 02/18/2021 at 08:31:38.
BEGIN options
  XT3D_OFF
END options

BEGIN griddata
  diffc
    CONSTANT       0.57024000
END griddata

