# File generated by Flopy version 3.3.2 on 10/22/2020 at 09:30:42.
BEGIN options
  NEWTON  UNDER_RELAXATION
END options

BEGIN packages
  DIS6  ex-gwf-nwt-p02.dis  dis
  NPF6  ex-gwf-nwt-p02.npf  npf
  STO6  ex-gwf-nwt-p02.sto  sto
  IC6  ex-gwf-nwt-p02.ic  ic
  CHD6  ex-gwf-nwt-p02.chd  chd_0
  RCH6  ex-gwf-nwt-p02.rch  rch_0
  OC6  ex-gwf-nwt-p02.oc  oc
END packages

