# File generated by Flopy version 3.3.2 on 10/22/2020 at 09:30:42.
BEGIN options
  HEAD  FILEOUT  ex-gwf-nwt-p02.hds
END options

BEGIN period  1
  SAVE  HEAD  LAST
END period  1

