# File generated by Flopy version 3.3.3 on 02/18/2021 at 08:32:07.
BEGIN options
  TIME_UNITS  seconds
END options

BEGIN dimensions
  NPER  2
END dimensions

BEGIN perioddata
  3.15360000E+07  365       1.00000000
  3.15360000E+07  365       1.00000000
END perioddata

