# File generated by Flopy version 3.3.3 on 02/18/2021 at 08:32:07.
BEGIN options
  PRINT_FLOWS
END options

BEGIN sources
  WEL-1  AUX  CONCENTRATION
  CHD-1  AUX  CONCENTRATION
END sources

