# File generated by Flopy version 3.3.2 on 10/22/2020 at 09:33:51.
BEGIN options
END options

BEGIN griddata
  alh
    CONSTANT      20.00000000
  ath1
    CONSTANT       4.00000000
END griddata

