# File generated by Flopy version 3.3.2 on 10/22/2020 at 09:33:48.
BEGIN options
  SAVE_SPECIFIC_DISCHARGE
END options

BEGIN griddata
  icelltype
    CONSTANT  0
  k
    CONSTANT       0.50000000
  k33
    CONSTANT       0.50000000
END griddata

