# File generated by Flopy version 3.3.3 on 02/18/2021 at 08:32:03.
BEGIN options
  SAVE_SPECIFIC_DISCHARGE
END options

BEGIN griddata
  icelltype
    CONSTANT  0
  k
    CONSTANT       0.50000000
  k33
    CONSTANT       0.50000000
END griddata

