# File generated by Flopy version 3.3.3 on 02/18/2021 at 08:32:03.
BEGIN options
  auxiliary  CONCENTRATION
  PRINT_INPUT
  PRINT_FLOWS
END options

BEGIN dimensions
  MAXBOUND  1
END dimensions

BEGIN period  1
  7 8 3       0.50000000     100.00000000
END period  1

