# File generated by Flopy version 3.3.2 on 10/22/2020 at 09:33:48.
BEGIN options
  auxiliary  CONCENTRATION
  PRINT_INPUT
  PRINT_FLOWS
END options

BEGIN dimensions
  MAXBOUND  1
END dimensions

BEGIN period  1
  7 8 3       0.50000000     100.00000000
END period  1

